data_I
_chemical_name_common  'NH2/0/modified_NH2_0'
_cell_length_a 14.67267
_cell_length_b 14.67267
_cell_length_c 14.67267
_cell_angle_alpha 60.00000
_cell_angle_beta  60.00000
_cell_angle_gamma 60.00000
_space_group_name_H-M_alt      'P 1'


loop_
_space_group_symop_operation_xyz
  'x, y, z' 

loop_
_atom_site_label
_atom_site_fract_x
_atom_site_fract_y
_atom_site_fract_z
_atom_site_type_symbol
Zr    0.11979582999999991 0.88020417 0.88020417    Zr
Zr    0.8802041699999997 0.11979582999999998 0.11979583    Zr
Zr    0.11979582999999996 0.11979583000000002 0.88020417    Zr
Zr    0.11979583000000003 0.8802041699999997 0.11979583    Zr
Zr    0.8802041699999997 0.11979583000000002 0.88020417    Zr
Zr    0.8802041699999998 0.8802041699999997 0.11979583    Zr
H     0.09439580999999993 0.71681257 0.09439581     H
H     0.7168125700000001 0.09439580999999998 0.09439581     H
H     0.09439580999999996 0.09439580999999998 0.09439581     H
H     0.09439580999999994 0.09439581 0.71681257     H
H     0.13921644999999983 0.5927710400000004 1.4203917699999997     H
H     -0.4072289600000001 1.13921645 0.84762074     H
H     -0.1523792599999998 1.4203917700000002 0.59277104     H
H     0.42039177000000005 0.8476207399999999 1.1392164500000002     H
H     0.1392164499999999 0.42039177 0.84762074     H
H     0.13921644999999955 0.8476207400000001 0.5927710400000002     H
H     0.42039177000000016 1.13921645 0.5927710400000001     H
H     0.5927710399999998 0.42039177000000005 1.1392164500000002     H
H     0.5927710399999998 0.84762074 0.4203917700000001     H
H     -0.15237925999999982 1.1392164500000002 0.42039177000000016     H
H     -0.15237926000000046 0.5927710399999999 1.1392164500000002     H
H     0.4203917699999998 0.5927710400000001 0.84762074     H
C     -0.006212760000000258 0.60055787 0.9937872400000001     C
C     -0.3994421300000001 0.9937872399999998 1.4118676500000003     C
C     -0.0062127600000004245 1.4118676500000003 0.9937872400000001     C
C     0.41186764999999936 0.99378724 0.60055787     C
C     -0.006212760000000525 1.41186765 0.60055787     C
C     -0.0062127600000000715 0.9937872399999998 1.4118676500000003     C
C     0.4118676499999999 0.99378724 0.9937872400000001     C
C     -0.39944212999999973 1.4118676500000003 0.9937872400000001     C
C     -0.39944213000000023 0.99378724 0.9937872400000001     C
C     -0.006212759999999998 0.99378724 0.60055787     C
C     -0.006212760000000127 0.6005578699999998 1.4118676500000003     C
C     0.4118676499999998 0.60055787 0.9937872400000001     C
C     0.07574972000000003 0.55369624 0.91094788     C
C     0.5536962399999997 1.07574972 0.45960616000000004     C
C     -0.08905212 0.45960615999999993 1.07574972     C
C     0.4596061599999995 0.9109478799999999 0.5536962400000001     C
C     0.07574972000000015 1.4596061599999997 0.55369624     C
C     0.07574971999999991 0.9109478800000002 0.45960616000000015     C
C     0.45960616000000004 1.07574972 0.91094788     C
C     0.55369624 0.45960615999999993 0.91094788     C
C     -0.44630376 0.9109478799999997 1.07574972     C
C     -0.0890521200000003 1.07574972 0.5536962400000002     C
C     -0.08905212000000001 0.5536962400000002 1.4596061599999994     C
C     0.45960616000000026 0.55369624 1.07574972     C
C     0.07574972000000019 0.5536962400000002 1.4596061599999994     C
C     -0.4463037600000001 1.07574972 0.91094788     C
C     -0.08905211999999964 1.4596061599999997 0.55369624     C
C     0.45960616000000026 0.9109478799999997 1.07574972     C
C     0.07574971999999998 0.4596061599999998 0.91094788     C
C     0.07574971999999983 0.9109478800000002 0.5536962400000002     C
C     0.45960616000000004 1.0757497199999997 0.5536962400000001     C
C     0.55369624 0.45960616000000004 1.07574972     C
C     0.5536962400000001 0.9109478799999999 0.45960616000000004     C
C     -0.08905211999999979 1.0757497200000001 0.45960616000000015     C
C     -0.08905212000000028 0.5536962399999998 1.07574972     C
C     0.45960615999999993 0.5536962400000001 0.91094788     C
C     0.30881657000000007 0.9959518499999999 0.6992797300000001     C
C     -0.004048150000000316 1.3088165699999998 0.99595185     C
C     -0.30072027000000007 0.9959518499999999 1.30881657     C
C     -0.004048150000000316 0.6992797299999999 0.99595185     C
C     0.3088165700000002 0.9959518499999999 0.99595185     C
C     0.30881657000000007 0.6992797299999999 0.99595185     C
C     -0.004048150000000554 1.3088165699999998 0.6992797300000001     C
C     -0.00404815000000011 0.9959518499999999 0.6992797300000001     C
C     -0.00404815000000011 0.6992797299999999 1.30881657     C
C     -0.3007202700000002 1.3088165699999998 0.99595185     C
C     -0.3007202700000001 0.9959518499999999 0.99595185     C
C     -0.00404815000000011 0.9959518499999999 1.30881657     C
O     0.06730802999999999 0.06730802999999999 0.79807592     O
O     0.06730802999999999 0.06730802999999999 0.06730803     O
O     0.79807592 0.06730802999999999 0.06730803     O
O     0.06730802999999999 0.79807592 0.06730803     O
O     0.07472636999999994 0.7379187399999999 0.92010767     O
O     -0.26208126000000015 1.07472637 1.26724722     O
O     -0.07989232999999991 1.2672472199999998 1.07472637     O
O     0.26724722 0.92010767 0.73791874     O
O     0.07472637000000004 1.2672472199999998 0.73791874     O
O     0.07472637000000014 0.9201076699999998 1.26724722     O
O     0.2672472200000002 1.0747263699999998 0.92010767     O
O     -0.2620812599999995 1.2672472199999998 0.92010767     O
O     -0.26208126000000015 0.9201076699999998 1.07472637     O
O     -0.07989233000000054 1.07472637 0.73791874     O
O     -0.07989233000000019 0.7379187399999999 1.26724722     O
O     0.2672472200000001 0.7379187399999999 1.07472637     O
O     0.07472637000000003 0.7379187399999999 1.26724722     O
O     -0.2620812599999995 1.0747263699999998 0.92010767     O
O     -0.07989232999999984 1.2672472199999998 0.73791874     O
O     0.26724722 0.9201076699999998 1.07472637     O
O     0.07472637000000006 1.2672472199999998 0.92010767     O
O     0.07472636999999999 0.92010767 0.73791874     O
O     0.26724722 1.07472637 0.73791874     O
O     -0.26208126000000004 1.2672472199999998 1.07472637     O
O     -0.26208125999999965 0.9201076699999998 1.26724722     O
O     -0.07989232999999997 1.07472637 1.26724722     O
O     -0.07989233000000036 0.7379187399999999 1.07472637     O
O     0.26724721999999995 0.7379187399999999 0.92010767     O
O     0.9495820799999999 0.94958208 0.15125376     O
O     0.9495820800000001 0.9495820799999999 0.94958208     O
O     0.15125375999999985 0.9495820799999999 0.94958208     O
O     0.9495820799999999 0.15125375999999996 0.94958208     O
N     0.1570995228100577 0.6005716529270445 0.8287277519498076     N
H     0.21673124366860727 0.5657008333573318 0.7684580579188218     H
H     0.1575959170719878 0.6700895168341386 0.8282260469871725     H
N     -0.1712722480501926 0.41360107231308996 1.157099522810058     N
H     -0.23154194208117834 0.44910986505524025 1.2167312436686064     H
H     -0.17177395301282777 0.34408851910670213 1.157595917071987     H
N     0.6005716529270448 1.1570995228100573 0.4136010723130904     N
H     0.565700833357332 1.216731243668606 0.44910986505524075     H
H     0.6700895168341391 1.1575959170719865 0.34408851910670263     H
N     0.4136010723130901 0.828727751949807 0.600571652927045     N
H     0.4491098650552406 0.768458057918821 0.5657008333573322     H
H     0.34408851910670263 0.828226046987172 0.6700895168341389     H
N     0.15709952281005776 1.41360107231309 0.6005716529270445     N
H     0.21673124366860644 1.4491098650552405 0.5657008333573315     H
H     0.15759591707198664 1.344088519106702 0.6700895168341384     H
N     -0.17127224805019317 0.6005716529270453 1.4136010723130903     N
H     -0.231541942081179 0.5657008333573323 1.4491098650552408     H
H     -0.17177395301282827 0.6700895168341394 1.3440885191067022     H
N     0.1570995228100578 0.8287277519498072 0.4136010723130905     N
H     0.21673124366860633 0.7684580579188216 0.4491098650552411     H
H     0.15759591707198692 0.828226046987172 0.3440885191067026     H
N     -0.17127224805019342 1.1570995228100576 0.6005716529270452     N
H     -0.23154194208117945 1.2167312436686062 0.5657008333573322     H
H     -0.17177395301282858 1.1575959170719865 0.6700895168341392     H
N     0.41360107231309023 1.1570995228100576 0.8287277519498072     N
H     0.4491098650552406 1.2167312436686057 0.7684580579188212     H
H     0.3440885191067022 1.1575959170719867 0.8282260469871718     H
N     -0.3994283470729554 0.8287277519498067 1.1570995228100576     N
H     -0.434299166642668 0.7684580579188208 1.2167312436686057     H
H     -0.32991048316586175 0.8282260469871715 1.1575959170719867     H
N     0.6005716529270445 0.41360107231309035 0.8287277519498072     N
H     0.5657008333573316 0.4491098650552408 0.7684580579188215     H
H     0.6700895168341381 0.3440885191067025 0.8282260469871723     H
N     0.41360107231309096 0.6005716529270446 1.1570995228100578     N
H     0.4491098650552412 0.5657008333573316 1.216731243668606     H
H     0.34408851910670324 0.6700895168341389 1.157595917071987     H
