data_I
_chemical_name_common  'COOH/30/modified_COOH_30'
_cell_length_a 14.67267
_cell_length_b 14.67267
_cell_length_c 14.67267
_cell_angle_alpha 60.00000
_cell_angle_beta  60.00000
_cell_angle_gamma 60.00000
_space_group_name_H-M_alt      'P 1'


loop_
_space_group_symop_operation_xyz
  'x, y, z' 

loop_
_atom_site_label
_atom_site_fract_x
_atom_site_fract_y
_atom_site_fract_z
_atom_site_type_symbol
Zr    0.8802041699999997 0.11979583000000002 0.88020417    Zr
Zr    0.11979583000000003 0.8802041699999997 0.11979583    Zr
Zr    0.11979582999999996 0.11979583000000002 0.88020417    Zr
Zr    0.11979582999999991 0.88020417 0.88020417    Zr
Zr    0.8802041699999997 0.11979582999999998 0.11979583    Zr
Zr    0.8802041699999998 0.8802041699999997 0.11979583    Zr
H     0.9056041899999999 0.9056041900000001 0.90560419     H
H     0.9056041899999999 0.90560419 0.28318743     H
H     0.28318743 0.9056041900000001 0.90560419     H
H     0.9056041899999999 0.28318743 0.90560419     H
H     1.081510007585132 -0.3687950549585016 0.8284593723318706     H
H     0.6312049450414982 0.08151000758513229 1.458825675041498     H
H     0.9320753670435247 0.35573102308854526 1.1840833167793843     H
H     1.355731023088545 -0.06792463295647505 0.5281102930885453     H
H     0.458825675041498 0.08151000758513213 0.8284593723318711     H
H     0.631204945041498 0.45882567504149807 0.8284593723318713     H
H     1.0815100075851323 0.4588256750414984 0.6312049450414983     H
H     1.1840833167793845 -0.06792463295647526 0.3557310230885451     H
H     0.9320753670435248 0.528110293088545 0.35573102308854504     H
H     0.3557310230885451 0.528110293088545 1.1840833167793843     H
H     0.5281102930885453 -0.06792463295647518 1.1840833167793843     H
H     0.8284593723318708 0.08151000758513216 0.6312049450414983     H
C     0.5881323499999999 0.006212759999999944 1.00621276     C
C     1.0062127600000002 -0.4118676499999999 1.39944213     C
C     1.3994421299999997 0.006212759999999944 1.00621276     C
C     1.00621276 0.39944213 0.58813235     C
C     1.0062127599999997 0.39944213 1.00621276     C
C     1.3994421299999997 -0.41186765 1.00621276     C
C     1.3994421300000002 0.006212759999999983 0.58813235     C
C     1.0062127599999997 0.006212759999999983 1.39944213     C
C     0.5881323499999996 0.006212759999999983 1.39944213     C
C     0.5881323499999996 0.39944213 1.00621276     C
C     1.0062127599999995 -0.41186765 1.00621276     C
C     1.0062127600000002 0.006212759999999983 0.58813235     C
C     0.5695857044759696 0.04913064943638277 0.9057880216116777     C
C     1.0491306494363828 0.5695857044759698 0.4754956244759697     C
C     0.4172293751679593 -0.03532568128602536 1.1067768509501061     C
C     0.9646743187139749 0.41722937516796005 0.5113194551679597     C
C     1.0491306494363828 0.47549562447596966 0.9057880216116777     C
C     0.47549562447596977 0.5695857044759696 0.905788021611678     C
C     1.4754956244759696 0.04913064943638291 0.5695857044759698     C
C     0.9057880216116772 0.04913064943638279 0.47549562447596977     C
C     0.5113194551679595 -0.03532568128602533 1.4172293751679592     C
C     0.5113194551679595 0.41722937516795944 1.1067768509501066     C
C     0.9646743187139741 -0.48868054483204043 1.1067768509501064     C
C     1.1067768509501057 -0.03532568128602555 0.5113194551679596     C
C     1.0491306494363828 -0.43041429552403015 0.9057880216116776     C
C     0.5695857044759695 0.04913064943638299 1.4754956244759698     C
C     0.9646743187139741 0.4172293751679595 1.1067768509501064     C
C     1.4172293751679594 -0.035325681286025326 0.5113194551679596     C
C     0.47549562447596944 0.04913064943638277 0.9057880216116777     C
C     0.5695857044759693 0.4754956244759695 0.9057880216116778     C
C     1.0491306494363828 0.47549562447597 0.5695857044759698     C
C     1.106776850950106 -0.0353256812860256 0.41722937516795955     C
C     0.9646743187139741 0.5113194551679594 0.4172293751679593     C
C     0.4172293751679594 0.5113194551679594 1.1067768509501064     C
C     0.5113194551679594 -0.03532568128602536 1.1067768509501061     C
C     0.9057880216116775 0.049130649436382734 0.5695857044759698     C
C     1.00404815 0.30072026999999996 0.6911834300000002     C
C     1.3007202699999998 0.004048149999999947 1.00404815     C
C     1.00404815 -0.30881657 1.30072027     C
C     0.6911834299999998 0.004048149999999947 1.00404815     C
C     1.30072027 0.004048149999999968 0.6911834300000002     C
C     1.00404815 0.004048149999999968 0.6911834300000002     C
C     1.00404815 0.30072027 1.00404815     C
C     0.69118343 0.30072027 1.00404815     C
C     1.00404815 -0.30881657 1.00404815     C
C     1.00404815 0.004048149999999962 1.30072027     C
C     0.69118343 0.004048149999999962 1.30072027     C
C     1.3007202699999998 -0.30881657 1.00404815     C
O     0.93269198 0.20192407999999998 0.9326919700000001     O
O     0.20192408999999992 0.93269197 0.9326919700000001     O
O     0.9326919800000001 0.93269197 0.20192408     O
O     0.93269198 0.93269197 0.9326919700000001     O
O     0.7327527800000001 0.07989232999999998 0.9252736300000001     O
O     1.0798923299999998 -0.2672472200000003 1.26208126     O
O     1.26208126 -0.07472637000000008 1.07989233     O
O     0.9252736300000001 0.26208126 0.7327527800000001     O
O     1.07989233 0.26208126 0.9252736300000001     O
O     1.2620812599999998 -0.2672472200000001 0.9252736300000001     O
O     1.26208126 0.07989232999999993 0.7327527800000001     O
O     0.9252736300000001 0.07989232999999993 1.26208126     O
O     0.7327527800000001 -0.07472637000000035 1.26208126     O
O     0.7327527799999997 0.2620812599999999 1.07989233     O
O     0.9252736300000001 -0.26724722000000006 1.07989233     O
O     1.0798923299999998 -0.07472637000000015 0.7327527800000001     O
O     1.0798923299999998 -0.2672472200000001 0.9252736300000001     O
O     0.7327527799999997 0.07989232999999993 1.26208126     O
O     0.9252736299999996 0.2620812599999999 1.07989233     O
O     1.2620812599999998 -0.07472637000000015 0.7327527800000001     O
O     1.26208126 0.07989232999999998 0.9252736300000001     O
O     0.7327527799999999 0.26208126 0.9252736300000001     O
O     1.0798923299999998 0.26208126 0.7327527800000001     O
O     1.07989233 -0.07472637000000035 1.26208126     O
O     0.9252736299999998 -0.2672472200000003 1.26208126     O
O     1.26208126 -0.26724722000000006 1.07989233     O
O     0.7327527800000001 -0.07472637000000008 1.07989233     O
O     0.9252736299999998 0.07989232999999993 0.7327527800000001     O
O     0.050417919999999894 0.8487462400000001 0.050417920000000005     O
O     0.8487462399999999 0.05041791999999999 0.050417920000000005     O
O     0.05041792000000005 0.05041791999999999 0.84874624     O
O     0.050417920000000005 0.05041791999999999 0.050417920000000005     O
C     0.6505410109784243 0.09512314260090857 0.7981689342210769     C
O     0.6369307044748405 0.13433220760778494 0.7064225751275592     O
O     0.7371332880816147 0.09737674297019655 0.7928956733387349     O
H     0.6912631249462868 0.1651996526846482 0.6341949996976257     H
C     0.3354602654672486 -0.07983990372337145 1.2145452740100386     C
O     0.34837679652384645 -0.11778872800286601 1.3064189432701467     O
O     0.24882811256994514 -0.08202106984899354 1.2198258522369383     O
H     0.2934981994092752 -0.1476640450749107 1.3787467439815109     H
C     1.0951231426009085 0.6505410109784251 0.4561669121995894     C
O     1.1343322076077846 0.6369307044748409 0.5223145127898144     O
O     1.0973767429701964 0.7371332880816159 0.37259429560945234     O
H     1.1651996526846475 0.6912631249462873 0.5093422226714387     H
C     0.9201600962766284 0.33546026546724905 0.5298343642460847     C
O     0.8822112719971332 0.3483767965238466 0.4629929882088737     O
O     0.9179789301510066 0.24882811256994608 0.61336710504211     O
H     0.8523359549250888 0.2934981994092757 0.47541910168412527     H
C     1.0951231426009085 0.4561669121995893 0.7981689342210772     C
O     1.1343322076077849 0.5223145127898142 0.7064225751275596     O
O     1.0973767429701968 0.3725942956094518 0.7928956733387356     O
H     1.1651996526846489 0.5093422226714382 0.6341949996976262     H
C     0.9201600962766269 -0.4701656357539161 1.214545274010039     C
O     0.8822112719971321 -0.5370070117911272 1.3064189432701467     O
O     0.9179789301510047 -0.3866328949578911 1.2198258522369387     O
H     0.8523359549250872 -0.5245808983158761 1.378746743981511     H
C     0.4561669121995898 0.6505410109784244 0.7981689342210774     C
O     0.5223145127898149 0.6369307044748407 0.7064225751275596     O
O     0.3725942956094528 0.737133288081616 0.7928956733387357     O
H     0.5093422226714388 0.6912631249462873 0.6341949996976262     H
C     0.5298343642460839 0.33546026546724866 1.2145452740100389     C
O     0.4629929882088727 0.3483767965238467 1.306418943270147     O
O     0.6133671050421092 0.24882811256994564 1.2198258522369385     O
H     0.47541910168412443 0.2934981994092755 1.378746743981511     H
C     1.4561669121995897 0.09512314260090826 0.6505410109784248     C
O     1.5223145127898152 0.13433220760778444 0.6369307044748411     O
O     1.3725942956094528 0.09737674297019597 0.7371332880816159     O
H     1.5093422226714397 0.16519965268464698 0.6912631249462877     H
C     0.529834364246084 -0.07983990372337185 1.335460265467249     C
O     0.4629929882088735 -0.11778872800286694 1.3483767965238467     O
O     0.6133671050421089 -0.08202106984899346 1.2488281125699456     O
H     0.47541910168412493 -0.14766404507491157 1.293498199409276     H
C     0.7981689342210766 0.0951231426009089 0.4561669121995898     C
O     0.706422575127559 0.13433220760778478 0.5223145127898151     O
O     0.7928956733387348 0.09737674297019656 0.372594295609453     O
H     0.6341949996976257 0.16519965268464787 0.5093422226714394     H
C     1.2145452740100382 -0.07983990372337227 0.5298343642460844     C
O     1.3064189432701465 -0.11778872800286765 0.46299298820887336     O
O     1.2198258522369383 -0.08202106984899478 0.6133671050421093     O
H     1.3787467439815109 -0.14766404507491201 0.4754191016841248     H
