data_I
_chemical_name_common  'CF3/180/modified_CF3_180'
_cell_length_a 14.67267
_cell_length_b 14.67267
_cell_length_c 14.67267
_cell_angle_alpha 60.00000
_cell_angle_beta  60.00000
_cell_angle_gamma 60.00000
_space_group_name_H-M_alt      'P 1'


loop_
_space_group_symop_operation_xyz
  'x, y, z' 

loop_
_atom_site_label
_atom_site_fract_x
_atom_site_fract_y
_atom_site_fract_z
_atom_site_type_symbol
Zr    0.11979582999999991 0.88020417 0.88020417    Zr
Zr    0.8802041699999997 0.11979582999999998 0.11979583    Zr
Zr    0.11979582999999996 0.11979583000000002 0.88020417    Zr
Zr    0.11979583000000003 0.8802041699999997 0.11979583    Zr
Zr    0.8802041699999997 0.11979583000000002 0.88020417    Zr
Zr    0.8802041699999998 0.8802041699999997 0.11979583    Zr
H     0.09439580999999993 0.71681257 0.09439581     H
H     0.7168125700000001 0.09439580999999998 0.09439581     H
H     0.09439580999999996 0.09439580999999998 0.09439581     H
H     0.09439580999999994 0.09439581 0.71681257     H
H     -0.15164196999999985 0.5920337499999992 1.41965448     H
H     -0.4079662500000001 0.8483580299999998 1.1399537400000002     H
H     0.1399537399999989 1.4196544799999997 0.59203375     H
H     0.41965448 1.13995374 0.8483580300000002     H
H     -0.15164197000000046 0.4196544800000002 1.1399537400000002     H
H     -0.15164197000000001 1.1399537400000002 0.59203375     H
H     0.4196544799999993 0.8483580299999997 0.5920337499999997     H
H     0.5920337499999997 0.41965447999999983 0.84835803     H
H     0.5920337499999995 1.1399537399999995 0.41965447999999955     H
H     0.13995373999999924 0.8483580300000002 0.4196544800000007     H
H     0.1399537399999997 0.5920337499999998 0.84835803     H
H     0.41965447999999983 0.5920337499999999 1.1399537400000002     H
C     -0.006212760000000258 0.60055787 0.9937872400000001     C
C     -0.3994421300000001 0.9937872399999998 1.4118676500000003     C
C     -0.0062127600000004245 1.4118676500000003 0.9937872400000001     C
C     0.41186764999999936 0.99378724 0.60055787     C
C     -0.006212760000000525 1.41186765 0.60055787     C
C     -0.0062127600000000715 0.9937872399999998 1.4118676500000003     C
C     0.4118676499999999 0.99378724 0.9937872400000001     C
C     -0.39944212999999973 1.4118676500000003 0.9937872400000001     C
C     -0.39944213000000023 0.99378724 0.9937872400000001     C
C     -0.006212759999999998 0.99378724 0.60055787     C
C     -0.006212760000000127 0.6005578699999998 1.4118676500000003     C
C     0.4118676499999998 0.60055787 0.9937872400000001     C
C     -0.08817524000000072 0.5528193600000001 1.0766266     C
C     0.5528193599999992 0.9118247599999998 0.4587292799999999     C
C     0.07662659999999925 0.4587292800000001 0.9118247600000002     C
C     0.4587292799999997 1.0766265999999993 0.5528193600000001     C
C     -0.08817524000000129 1.4587292799999996 0.5528193600000005     C
C     -0.0881752400000003 1.0766265999999998 0.45872928000000046     C
C     0.45872928 0.9118247599999997 1.0766266000000002     C
C     0.5528193600000001 0.4587292799999997 1.0766266000000002     C
C     -0.4471806400000004 1.0766266 0.9118247600000003     C
C     0.07662659999999984 0.91182476 0.5528193600000003     C
C     0.07662660000000016 0.55281936 1.4587292799999998     C
C     0.45872927999999996 0.5528193599999995 0.9118247600000002     C
C     -0.08817523999999997 0.5528193599999999 1.45872928     C
C     -0.4471806400000001 0.9118247599999997 1.0766266000000002     C
C     0.07662659999999857 1.4587292799999996 0.5528193600000005     C
C     0.4587292799999999 1.0766266 0.9118247600000003     C
C     -0.08817524000000056 0.4587292800000002 1.0766266     C
C     -0.08817524000000024 1.0766265999999998 0.5528193600000005     C
C     0.45872927999999946 0.9118247599999997 0.5528193599999998     C
C     0.5528193599999998 0.45872927999999985 0.9118247600000002     C
C     0.5528193599999992 1.0766266 0.4587292799999996     C
C     0.07662659999999935 0.91182476 0.4587292800000008     C
C     0.07662659999999964 0.5528193599999995 0.9118247600000002     C
C     0.4587292799999999 0.5528193599999998 1.0766266000000002     C
C     0.30881657000000007 0.9959518499999999 0.6992797300000001     C
C     -0.004048150000000316 1.3088165699999998 0.99595185     C
C     -0.30072027000000007 0.9959518499999999 1.30881657     C
C     -0.004048150000000316 0.6992797299999999 0.99595185     C
C     0.3088165700000002 0.9959518499999999 0.99595185     C
C     0.30881657000000007 0.6992797299999999 0.99595185     C
C     -0.004048150000000554 1.3088165699999998 0.6992797300000001     C
C     -0.00404815000000011 0.9959518499999999 0.6992797300000001     C
C     -0.00404815000000011 0.6992797299999999 1.30881657     C
C     -0.3007202700000002 1.3088165699999998 0.99595185     C
C     -0.3007202700000001 0.9959518499999999 0.99595185     C
C     -0.00404815000000011 0.9959518499999999 1.30881657     C
O     0.06730802999999999 0.06730802999999999 0.79807592     O
O     0.06730802999999999 0.06730802999999999 0.06730803     O
O     0.79807592 0.06730802999999999 0.06730803     O
O     0.06730802999999999 0.79807592 0.06730803     O
O     0.07472636999999994 0.7379187399999999 0.92010767     O
O     -0.26208126000000015 1.07472637 1.26724722     O
O     -0.07989232999999991 1.2672472199999998 1.07472637     O
O     0.26724722 0.92010767 0.73791874     O
O     0.07472637000000004 1.2672472199999998 0.73791874     O
O     0.07472637000000014 0.9201076699999998 1.26724722     O
O     0.2672472200000002 1.0747263699999998 0.92010767     O
O     -0.2620812599999995 1.2672472199999998 0.92010767     O
O     -0.26208126000000015 0.9201076699999998 1.07472637     O
O     -0.07989233000000054 1.07472637 0.73791874     O
O     -0.07989233000000019 0.7379187399999999 1.26724722     O
O     0.2672472200000001 0.7379187399999999 1.07472637     O
O     0.07472637000000003 0.7379187399999999 1.26724722     O
O     -0.2620812599999995 1.0747263699999998 0.92010767     O
O     -0.07989232999999984 1.2672472199999998 0.73791874     O
O     0.26724722 0.9201076699999998 1.07472637     O
O     0.07472637000000006 1.2672472199999998 0.92010767     O
O     0.07472636999999999 0.92010767 0.73791874     O
O     0.26724722 1.07472637 0.73791874     O
O     -0.26208126000000004 1.2672472199999998 1.07472637     O
O     -0.26208125999999965 0.9201076699999998 1.26724722     O
O     -0.07989232999999997 1.07472637 1.26724722     O
O     -0.07989233000000036 0.7379187399999999 1.07472637     O
O     0.26724721999999995 0.7379187399999999 0.92010767     O
O     0.9495820799999999 0.94958208 0.15125376     O
O     0.9495820800000001 0.9495820799999999 0.94958208     O
O     0.15125375999999985 0.9495820799999999 0.94958208     O
O     0.9495820799999999 0.15125375999999996 0.94958208     O
C     -0.17718843003129572 0.6031582602950973 1.1665921024317325     C
F     -0.24942857812062133 0.545183689804455 1.2396051156302703     F
F     -0.13293127828343926 0.6049957813762646 1.227682134701569     F
F     -0.23930298718503595 0.7102474411879295 1.1235505239798356     F
C     0.16659210243173186 0.4074380673044661 0.8228115699687047     C
F     0.2396051156302694 0.46463977268589624 0.7505714218793796     F
F     0.22768213470156798 0.30025336220560583 0.8670687217165624     F
F     0.12355052397983576 0.4055050220172709 0.7606970128149646     F
C     0.6031582602950964 0.8228115699687051 0.40743806730446475     C
F     0.5451836898044534 0.7505714218793795 0.4646397726858951     F
F     0.6049957813762621 0.8670687217165625 0.30025336220560517     F
F     0.7102474411879274 0.7606970128149644 0.40550502201726957     F
C     0.407438067304465 1.1665921024317325 0.6031582602950966     C
F     0.4646397726858948 1.2396051156302705 0.5451836898044538     F
F     0.30025336220560467 1.2276821347015687 0.6049957813762628     F
F     0.4055050220172698 1.1235505239798367 0.710247441187928     F
C     -0.1771884300312958 1.4074380673044657 0.6031582602950973     C
F     -0.24942857812062105 1.4646397726858953 0.5451836898044542     F
F     -0.1329312782834381 1.3002533622056052 0.6049957813762639     F
F     -0.2393029871850366 1.4055050220172702 0.7102474411879284     F
C     0.1665921024317334 0.6031582602950962 1.4074380673044653     C
F     0.2396051156302714 0.5451836898044534 1.4646397726858948     F
F     0.22768213470156937 0.6049957813762632 1.300253362205605     F
F     0.12355052397983696 0.710247441187928 1.4055050220172698     F
C     -0.17718843003129592 1.166592102431733 0.40743806730446636     C
F     -0.24942857812062047 1.2396051156302708 0.46463977268589646     F
F     -0.1329312782834387 1.2276821347015694 0.30025336220560633     F
F     -0.23930298718503676 1.123550523979837 0.40550502201727195     F
C     0.16659210243173309 0.822811569968705 0.6031582602950967     C
F     0.23960511563027104 0.7505714218793802 0.5451836898044535     F
F     0.2276821347015688 0.8670687217165631 0.604995781376263     F
F     0.12355052397983737 0.7606970128149649 0.7102474411879284     F
C     0.4074380673044653 0.8228115699687046 1.1665921024317332     C
F     0.46463977268589524 0.7505714218793796 1.2396051156302712     F
F     0.3002533622056052 0.8670687217165628 1.2276821347015692     F
F     0.4055050220172705 0.7606970128149642 1.1235505239798371     F
C     -0.3968417397049038 1.1665921024317332 0.8228115699687053     C
F     -0.454816310195547 1.2396051156302708 0.7505714218793808     F
F     -0.39500421862373747 1.227682134701569 0.8670687217165632     F
F     -0.2897525588120722 1.1235505239798373 0.7606970128149646     F
C     0.6031582602950967 0.40743806730446575 1.166592102431733     C
F     0.545183689804454 0.46463977268589607 1.2396051156302708     F
F     0.6049957813762634 0.3002533622056048 1.2276821347015694     F
F     0.7102474411879283 0.4055050220172703 1.1235505239798367     F
C     0.40743806730446575 0.6031582602950959 0.822811569968705     C
F     0.4646397726858956 0.5451836898044528 0.7505714218793803     F
F     0.3002533622056055 0.6049957813762625 0.8670687217165628     F
F     0.40550502201727007 0.7102474411879278 0.7606970128149642     F
