data_I
_chemical_name_common  'COOH/150/modified_COOH_150'
_cell_length_a 14.67267
_cell_length_b 14.67267
_cell_length_c 14.67267
_cell_angle_alpha 60.00000
_cell_angle_beta  60.00000
_cell_angle_gamma 60.00000
_space_group_name_H-M_alt      'P 1'


loop_
_space_group_symop_operation_xyz
  'x, y, z' 

loop_
_atom_site_label
_atom_site_fract_x
_atom_site_fract_y
_atom_site_fract_z
_atom_site_type_symbol
Zr    0.8802041699999997 0.11979583000000002 0.88020417    Zr
Zr    0.11979583000000003 0.8802041699999997 0.11979583    Zr
Zr    0.11979582999999996 0.11979583000000002 0.88020417    Zr
Zr    0.11979582999999991 0.88020417 0.88020417    Zr
Zr    0.8802041699999997 0.11979582999999998 0.11979583    Zr
Zr    0.8802041699999998 0.8802041699999997 0.11979583    Zr
H     0.9056041899999999 0.9056041900000001 0.90560419     H
H     0.9056041899999999 0.90560419 0.28318743     H
H     0.28318743 0.9056041900000001 0.90560419     H
H     0.9056041899999999 0.28318743 0.90560419     H
H     0.8283422032206156 -0.36815654308854523 1.0803501529564747     H
H     0.6318434569114543 -0.17165779677938384 1.4594641869114544     H
H     1.183966147668129 0.3563695349585011 0.9309155124148676     H
H     1.3563695349585014 0.18396614766812927 0.5287488049585017     H
H     0.45946418691145424 -0.17165779677938414 1.0803501529564747     H
H     0.6318434569114542 0.4594641869114546 1.0803501529564752     H
H     0.8283422032206164 0.4594641869114542 0.6318434569114546     H
H     0.9309155124148681 0.18396614766812944 0.35636953495850093     H
H     1.1839661476681298 0.5287488049585014 0.35636953495850154     H
H     0.35636953495850143 0.5287488049585013 0.9309155124148679     H
H     0.5287488049585015 0.1839661476681292 0.9309155124148677     H
H     1.0803501529564752 -0.1716577967793842 0.6318434569114546     H
C     0.5881323499999999 0.006212759999999944 1.00621276     C
C     1.0062127600000002 -0.4118676499999999 1.39944213     C
C     1.3994421299999997 0.006212759999999944 1.00621276     C
C     1.00621276 0.39944213 0.58813235     C
C     1.0062127599999997 0.39944213 1.00621276     C
C     1.3994421299999997 -0.41186765 1.00621276     C
C     1.3994421300000002 0.006212759999999983 0.58813235     C
C     1.0062127599999997 0.006212759999999983 1.39944213     C
C     0.5881323499999996 0.006212759999999983 1.39944213     C
C     0.5881323499999996 0.39944213 1.00621276     C
C     1.0062127599999995 -0.41186765 1.00621276     C
C     1.0062127600000002 0.006212759999999983 0.58813235     C
C     0.5703451048320403 -0.09435133095010603 1.0477512012860253     C
C     0.9056486690498937 0.5703451048320402 0.4762550248320403     C
C     0.4179887755240302 0.1066374983883224 0.963294870563617     C
C     1.1066374983883216 0.41798877552403013 0.5120788555240303     C
C     0.9056486690498939 0.4762550248320402 1.0477512012860253     C
C     0.4762550248320395 0.5703451048320398 1.0477512012860257     C
C     1.47625502483204 -0.09435133095010594 0.5703451048320404     C
C     1.0477512012860253 -0.094351330950106 0.47625502483204013     C
C     0.5120788555240298 0.10663749838832286 1.4179887755240304     C
C     0.51207885552403 0.4179887755240298 0.9632948705636174     C
C     1.1066374983883223 -0.4879211444759702 0.9632948705636171     C
C     0.9632948705636178 0.10663749838832248 0.5120788555240297     C
C     0.9056486690498938 -0.42965489516795957 1.047751201286025     C
C     0.57034510483204 -0.09435133095010581 1.4762550248320407     C
C     1.106637498388322 0.4179887755240299 0.9632948705636171     C
C     1.41798877552403 0.10663749838832261 0.5120788555240301     C
C     0.4762550248320401 -0.09435133095010603 1.0477512012860253     C
C     0.5703451048320395 0.47625502483204024 1.0477512012860255     C
C     0.9056486690498935 0.4762550248320401 0.5703451048320404     C
C     0.9632948705636173 0.10663749838832273 0.41798877552402974     C
C     1.1066374983883231 0.5120788555240298 0.41798877552402985     C
C     0.41798877552402963 0.5120788555240301 0.9632948705636173     C
C     0.5120788555240302 0.1066374983883224 0.963294870563617     C
C     1.0477512012860257 -0.09435133095010584 0.57034510483204     C
C     1.00404815 0.30072026999999996 0.6911834300000002     C
C     1.3007202699999998 0.004048149999999947 1.00404815     C
C     1.00404815 -0.30881657 1.30072027     C
C     0.6911834299999998 0.004048149999999947 1.00404815     C
C     1.30072027 0.004048149999999968 0.6911834300000002     C
C     1.00404815 0.004048149999999968 0.6911834300000002     C
C     1.00404815 0.30072027 1.00404815     C
C     0.69118343 0.30072027 1.00404815     C
C     1.00404815 -0.30881657 1.00404815     C
C     1.00404815 0.004048149999999962 1.30072027     C
C     0.69118343 0.004048149999999962 1.30072027     C
C     1.3007202699999998 -0.30881657 1.00404815     C
O     0.93269198 0.20192407999999998 0.9326919700000001     O
O     0.20192408999999992 0.93269197 0.9326919700000001     O
O     0.9326919800000001 0.93269197 0.20192408     O
O     0.93269198 0.93269197 0.9326919700000001     O
O     0.7327527800000001 0.07989232999999998 0.9252736300000001     O
O     1.0798923299999998 -0.2672472200000003 1.26208126     O
O     1.26208126 -0.07472637000000008 1.07989233     O
O     0.9252736300000001 0.26208126 0.7327527800000001     O
O     1.07989233 0.26208126 0.9252736300000001     O
O     1.2620812599999998 -0.2672472200000001 0.9252736300000001     O
O     1.26208126 0.07989232999999993 0.7327527800000001     O
O     0.9252736300000001 0.07989232999999993 1.26208126     O
O     0.7327527800000001 -0.07472637000000035 1.26208126     O
O     0.7327527799999997 0.2620812599999999 1.07989233     O
O     0.9252736300000001 -0.26724722000000006 1.07989233     O
O     1.0798923299999998 -0.07472637000000015 0.7327527800000001     O
O     1.0798923299999998 -0.2672472200000001 0.9252736300000001     O
O     0.7327527799999997 0.07989232999999993 1.26208126     O
O     0.9252736299999996 0.2620812599999999 1.07989233     O
O     1.2620812599999998 -0.07472637000000015 0.7327527800000001     O
O     1.26208126 0.07989232999999998 0.9252736300000001     O
O     0.7327527799999999 0.26208126 0.9252736300000001     O
O     1.0798923299999998 0.26208126 0.7327527800000001     O
O     1.07989233 -0.07472637000000035 1.26208126     O
O     0.9252736299999998 -0.2672472200000003 1.26208126     O
O     1.26208126 -0.26724722000000006 1.07989233     O
O     0.7327527800000001 -0.07472637000000008 1.07989233     O
O     0.9252736299999998 0.07989232999999993 0.7327527800000001     O
O     0.050417919999999894 0.8487462400000001 0.050417920000000005     O
O     0.8487462399999999 0.05041791999999999 0.050417920000000005     O
O     0.05041792000000005 0.05041791999999999 0.84874624     O
O     0.050417920000000005 0.05041791999999999 0.050417920000000005     O
C     0.6521142145327505 -0.20211975401003854 1.0922654237233715     C
O     0.6391976834761528 -0.2939934232701466 1.130214248002866     O
O     0.7387463674300528 -0.20740033223693846 1.0944465898489935     O
H     0.6940762805907239 -0.3663212239815109 1.1600895650749106     H
C     0.3370334690215753 0.21425658577892287 0.9173023773990908     C
O     0.3506437755251593 0.3060029448724408 0.8780933123922144     O
O     0.25044119191838343 0.2195298466612651 0.9150487770298031     O
H     0.29631135505371253 0.3782305203023739 0.8472258673153515     H
C     0.7978802459899617 0.6521142145327508 0.457740115753916     C
O     0.7060065767298537 0.6391976834761527 0.524581491791127     O
O     0.792599667763062 0.7387463674300536 0.37420737495789064     O
H     0.6336787760184899 0.6940762805907236 0.5121553783158757     H
C     1.2142565857789225 0.3370334690215749 0.5314075678004105     C
O     1.3060029448724404 0.35064377552515824 0.4652599672101856     O
O     1.219529846661264 0.25044119191838365 0.6149801843905479     O
H     1.3782305203023741 0.29631135505371187 0.4782322573285615     H
C     0.7978802459899615 0.4577401157539154 1.0922654237233713     C
O     0.7060065767298538 0.5245814917911263 1.130214248002866     O
O     0.7925996677630625 0.37420737495789014 1.0944465898489926     O
H     0.6336787760184894 0.5121553783158757 1.16008956507491     H
C     1.2142565857789236 -0.46859243219959096 0.9173023773990916     C
O     1.306002944872441 -0.5347400327898162 0.8780933123922158     O
O     1.2195298466612658 -0.3850198156094546 0.9150487770298043     O
H     1.3782305203023746 -0.5217677426714409 0.8472258673153531     H
C     0.45774011575391543 0.6521142145327505 1.0922654237233722     C
O     0.5245814917911265 0.6391976834761525 1.130214248002867     O
O     0.37420737495788986 0.7387463674300531 1.0944465898489943     O
H     0.512155378315875 0.6940762805907237 1.1600895650749115     H
C     0.5314075678004104 0.337033469021575 0.9173023773990915     C
O     0.46525996721018464 0.35064377552515863 0.8780933123922153     O
O     0.6149801843905472 0.2504411919183837 0.9150487770298038     O
H     0.4782322573285609 0.2963113550537121 0.8472258673153524     H
C     1.4577401157539156 -0.20211975401003848 0.6521142145327509     C
O     1.5245814917911267 -0.2939934232701463 0.639197683476153     O
O     1.3742073749578902 -0.2074003322369374 0.7387463674300535     O
H     1.5121553783158757 -0.3663212239815105 0.6940762805907229     H
C     0.53140756780041 0.21425658577892337 1.337033469021575     C
O     0.46525996721018475 0.3060029448724411 1.3506437755251586     O
O     0.614980184390547 0.21952984666126546 1.2504411919183844     O
H     0.47823225732856073 0.3782305203023744 1.2963113550537122     H
C     1.0922654237233718 -0.20211975401003882 0.457740115753916     C
O     1.1302142480028667 -0.2939934232701465 0.5245814917911272     O
O     1.0944465898489935 -0.20740033223693835 0.37420737495789114     O
H     1.1600895650749112 -0.3663212239815107 0.512155378315876     H
C     0.9173023773990922 0.21425658577892295 0.5314075678004099     C
O     0.8780933123922163 0.3060029448724409 0.4652599672101843     O
O     0.9150487770298044 0.2195298466612653 0.6149801843905464     O
H     0.8472258673153533 0.37823052030237414 0.47823225732856045     H
