data_I
_chemical_name_common  'SH/150/modified_SH_150'
_cell_length_a 14.67267
_cell_length_b 14.67267
_cell_length_c 14.67267
_cell_angle_alpha 60.00000
_cell_angle_beta  60.00000
_cell_angle_gamma 60.00000
_space_group_name_H-M_alt      'P 1'


loop_
_space_group_symop_operation_xyz
  'x, y, z' 

loop_
_atom_site_label
_atom_site_fract_x
_atom_site_fract_y
_atom_site_fract_z
_atom_site_type_symbol
Zr    0.11979582999999991 0.88020417 0.88020417    Zr
Zr    0.8802041699999997 0.11979582999999998 0.11979583    Zr
Zr    0.11979582999999996 0.11979583000000002 0.88020417    Zr
Zr    0.11979583000000003 0.8802041699999997 0.11979583    Zr
Zr    0.8802041699999997 0.11979583000000002 0.88020417    Zr
Zr    0.8802041699999998 0.8802041699999997 0.11979583    Zr
H     0.09439580999999993 0.71681257 0.09439581     H
H     0.7168125700000001 0.09439580999999998 0.09439581     H
H     0.09439580999999996 0.09439580999999998 0.09439581     H
H     0.09439580999999994 0.09439581 0.71681257     H
H     -0.18396614766812885 0.6436304650414979 1.4712511950414984     H
H     -0.35636953495850165 0.8160338523318708 1.0690844875851324     H
H     0.1716577967793829 1.368156543088546 0.5405358130885453     H
H     0.3681565430885455 1.171657796779384 0.9196498470435251     H
H     -0.08035015295647538 0.3681565430885457 1.1716577967793842     H
H     -0.08035015295647471 1.1716577967793842 0.5405358130885453     H
H     0.3681565430885444 0.9196498470435253 0.540535813088545     H
H     0.5405358130885456 0.3681565430885453 0.9196498470435251     H
H     0.6436304650414975 1.0690844875851322 0.4712511950414981     H
H     0.06908448758513137 0.8160338523318716 0.4712511950414987     H
H     0.06908448758513204 0.6436304650414982 0.816033852331871     H
H     0.47125119504149865 0.6436304650414983 1.0690844875851322     H
C     -0.006212760000000258 0.60055787 0.9937872400000001     C
C     -0.3994421300000001 0.9937872399999998 1.4118676500000003     C
C     -0.0062127600000004245 1.4118676500000003 0.9937872400000001     C
C     0.41186764999999936 0.99378724 0.60055787     C
C     -0.006212760000000525 1.41186765 0.60055787     C
C     -0.0062127600000000715 0.9937872399999998 1.4118676500000003     C
C     0.4118676499999999 0.99378724 0.9937872400000001     C
C     -0.39944212999999973 1.4118676500000003 0.9937872400000001     C
C     -0.39944213000000023 0.99378724 0.9937872400000001     C
C     -0.006212759999999998 0.99378724 0.60055787     C
C     -0.006212760000000127 0.6005578699999998 1.4118676500000003     C
C     0.4118676499999998 0.60055787 0.9937872400000001     C
C     -0.04775120128602617 0.5237449751679598 1.0943513309501063     C
C     0.5237449751679589 0.9522487987139744 0.4296548951679595     C
C     0.03670512943638228 0.4879211444759699 0.8933625016116776     C
C     0.48792114447596874 1.0367051294363827 0.58201122447597     C
C     -0.1066374983883233 1.4879211444759701 0.5820112244759703     C
C     -0.047751201286025766 1.0943513309501065 0.4296548951679598     C
C     0.4879211444759698 0.8933625016116773 1.0367051294363832     C
C     0.5820112244759704 0.4879211444759695 1.0367051294363827     C
C     -0.47625502483204074 1.0943513309501058 0.9522487987139753     C
C     0.03670512943638284 0.8933625016116777 0.5820112244759699     C
C     0.09435133095010638 0.5237449751679598 1.4296548951679593     C
C     0.42965489516795974 0.5237449751679595 0.9522487987139746     C
C     -0.10663749838832237 0.5820112244759696 1.4879211444759697     C
C     -0.41798877552403035 0.8933625016116773 1.0367051294363832     C
C     0.09435133095010485 1.4296548951679602 0.5237449751679599     C
C     0.4296548951679595 1.0943513309501058 0.9522487987139753     C
C     -0.04775120128602595 0.4296548951679598 1.0943513309501063     C
C     -0.04775120128602572 1.0943513309501063 0.5237449751679599     C
C     0.4296548951679586 0.9522487987139745 0.5237449751679593     C
C     0.5237449751679595 0.4296548951679595 0.9522487987139746     C
C     0.5820112244759691 1.036705129436383 0.4879211444759693     C
C     0.03670512943638211 0.8933625016116777 0.48792114447597035     C
C     0.036705129436382836 0.5820112244759695 0.8933625016116774     C
C     0.4879211444759703 0.5820112244759693 1.0367051294363827     C
C     0.30881657000000007 0.9959518499999999 0.6992797300000001     C
C     -0.004048150000000316 1.3088165699999998 0.99595185     C
C     -0.30072027000000007 0.9959518499999999 1.30881657     C
C     -0.004048150000000316 0.6992797299999999 0.99595185     C
C     0.3088165700000002 0.9959518499999999 0.99595185     C
C     0.30881657000000007 0.6992797299999999 0.99595185     C
C     -0.004048150000000554 1.3088165699999998 0.6992797300000001     C
C     -0.00404815000000011 0.9959518499999999 0.6992797300000001     C
C     -0.00404815000000011 0.6992797299999999 1.30881657     C
C     -0.3007202700000002 1.3088165699999998 0.99595185     C
C     -0.3007202700000001 0.9959518499999999 0.99595185     C
C     -0.00404815000000011 0.9959518499999999 1.30881657     C
O     0.06730802999999999 0.06730802999999999 0.79807592     O
O     0.06730802999999999 0.06730802999999999 0.06730803     O
O     0.79807592 0.06730802999999999 0.06730803     O
O     0.06730802999999999 0.79807592 0.06730803     O
O     0.07472636999999994 0.7379187399999999 0.92010767     O
O     -0.26208126000000015 1.07472637 1.26724722     O
O     -0.07989232999999991 1.2672472199999998 1.07472637     O
O     0.26724722 0.92010767 0.73791874     O
O     0.07472637000000004 1.2672472199999998 0.73791874     O
O     0.07472637000000014 0.9201076699999998 1.26724722     O
O     0.2672472200000002 1.0747263699999998 0.92010767     O
O     -0.2620812599999995 1.2672472199999998 0.92010767     O
O     -0.26208126000000015 0.9201076699999998 1.07472637     O
O     -0.07989233000000054 1.07472637 0.73791874     O
O     -0.07989233000000019 0.7379187399999999 1.26724722     O
O     0.2672472200000001 0.7379187399999999 1.07472637     O
O     0.07472637000000003 0.7379187399999999 1.26724722     O
O     -0.2620812599999995 1.0747263699999998 0.92010767     O
O     -0.07989232999999984 1.2672472199999998 0.73791874     O
O     0.26724722 0.9201076699999998 1.07472637     O
O     0.07472637000000006 1.2672472199999998 0.92010767     O
O     0.07472636999999999 0.92010767 0.73791874     O
O     0.26724722 1.07472637 0.73791874     O
O     -0.26208126000000004 1.2672472199999998 1.07472637     O
O     -0.26208125999999965 0.9201076699999998 1.26724722     O
O     -0.07989232999999997 1.07472637 1.26724722     O
O     -0.07989233000000036 0.7379187399999999 1.07472637     O
O     0.26724721999999995 0.7379187399999999 0.92010767     O
O     0.9495820799999999 0.94958208 0.15125376     O
O     0.9495820800000001 0.9495820799999999 0.94958208     O
O     0.15125375999999985 0.9495820799999999 0.94958208     O
O     0.9495820799999999 0.15125375999999996 0.94958208     O
S     -0.1021242783571485 0.5463605016929184 1.2259879282447887     S
H     -0.13146197763086398 0.4551366344095386 1.2970141624193816     H
S     0.09288387947627207 0.4643115764605264 0.7619083143291989     S
H     0.12319585303053182 0.5549990957591242 0.6909805018436259     H
S     0.5463605016929164 0.8978757216428536 0.3297758484194405     S
H     0.45513663440953633 0.868538022369138 0.3793111808019427     H
S     0.4643115764605252 1.0928838794762732 0.6808962297340015     S
H     0.5549990957591221 1.1231958530305335 0.6308245493667172     H
S     -0.23809168567080274 1.4643115764605266 0.6808962297340024     S
H     -0.30901949815637464 1.5549990957591238 0.6308245493667176     H
S     0.225987928244789 0.5463605016929167 1.3297758484194404     S
H     0.2970141624193823 0.45513663440953733 1.3793111808019427     H
S     -0.10212427835714756 1.2259879282447892 0.3297758484194414     S
H     -0.1314619776308633 1.297014162419382 0.37931118080194415     H
S     0.0928838794762735 0.7619083143291989 0.680896229734002     S
H     0.12319585303053375 0.690980501843626 0.630824549366717     H
S     0.46431157646052607 0.7619083143291987 1.0928838794762734     S
H     0.5549990957591235 0.6909805018436252 1.1231958530305335     H
S     -0.45363949830708356 1.225987928244789 0.8978757216428537     S
H     -0.5448633655904638 1.297014162419382 0.8685380223691384     H
S     0.6808962297340024 0.4643115764605261 1.0928838794762727     S
H     0.6308245493667181 0.5549990957591237 1.1231958530305326     H
S     0.329775848419441 0.5463605016929162 0.8978757216428537     S
H     0.37931118080194426 0.45513663440953644 0.868538022369138     H
