data_I
_chemical_name_common  'NH2/120/modified_NH2_120'
_cell_length_a 14.67267
_cell_length_b 14.67267
_cell_length_c 14.67267
_cell_angle_alpha 60.00000
_cell_angle_beta  60.00000
_cell_angle_gamma 60.00000
_space_group_name_H-M_alt      'P 1'


loop_
_space_group_symop_operation_xyz
  'x, y, z' 

loop_
_atom_site_label
_atom_site_fract_x
_atom_site_fract_y
_atom_site_fract_z
_atom_site_type_symbol
Zr    0.11979582999999991 0.88020417 0.88020417    Zr
Zr    0.8802041699999997 0.11979582999999998 0.11979583    Zr
Zr    0.11979582999999996 0.11979583000000002 0.88020417    Zr
Zr    0.11979583000000003 0.8802041699999997 0.11979583    Zr
Zr    0.8802041699999997 0.11979583000000002 0.88020417    Zr
Zr    0.8802041699999998 0.8802041699999997 0.11979583    Zr
H     0.09439580999999993 0.71681257 0.09439581     H
H     0.7168125700000001 0.09439580999999998 0.09439581     H
H     0.09439580999999996 0.09439580999999998 0.09439581     H
H     0.09439580999999994 0.09439581 0.71681257     H
H     0.010806718658686463 0.5029354849144274 1.3305562149144279     H
H     -0.31849933991442775 0.8313385513413134 0.978039398487542     H
H     -0.021960601512458724 1.509121390085572 0.6815006600855721     H
H     0.3305562149144277 1.155701581512458 1.0108067186586867     H
H     0.010806718658686175 0.33055621491442755 1.1557015815124585     H
H     0.010806718658686225 1.155701581512458 0.502935484914428     H
H     0.33055621491442677 1.0108067186586869 0.5029354849144272     H
H     0.6815006600855724 0.509121390085572 0.8313385513413134     H
H     0.6815006600855712 0.9780393984875422 0.509121390085572     H
H     -0.021960601512458634 0.8313385513413143 0.5091213900855727     H
H     -0.021960601512458162 0.681500660085572 0.8313385513413135     H
H     0.33055621491442777 0.5029354849144276 1.155701581512458     H
C     -0.006212760000000258 0.60055787 0.9937872400000001     C
C     -0.3994421300000001 0.9937872399999998 1.4118676500000003     C
C     -0.0062127600000004245 1.4118676500000003 0.9937872400000001     C
C     0.41186764999999936 0.99378724 0.60055787     C
C     -0.006212760000000525 1.41186765 0.60055787     C
C     -0.0062127600000000715 0.9937872399999998 1.4118676500000003     C
C     0.4118676499999999 0.99378724 0.9937872400000001     C
C     -0.39944212999999973 1.4118676500000003 0.9937872400000001     C
C     -0.39944213000000023 0.99378724 0.9937872400000001     C
C     -0.006212759999999998 0.99378724 0.60055787     C
C     -0.006212760000000127 0.6005578699999998 1.4118676500000003     C
C     0.4118676499999998 0.60055787 0.9937872400000001     C
C     0.0038030292253867343 0.5025785279160255 1.0851299949425617     C
C     0.5025785279160249 1.0038030292253874 0.4084884479160257     C
C     -0.014716154942561753 0.509408552083974 0.9018089707746132     C
C     0.5094085520839735 0.9852838450574386 0.6034986320839744     C
C     0.0038030292253862924 1.4084884479160253 0.5025785279160259     C
C     0.0038030292253866047 1.0851299949425617 0.4084884479160261     C
C     0.5094085520839743 0.9018089707746126 0.9852838450574389     C
C     0.5025785279160262 0.40848844791602557 1.0851299949425612     C
C     -0.49742147208397475 1.0851299949425612 1.0038030292253879     C
C     -0.014716154942561444 0.9018089707746126 0.6034986320839744     C
C     -0.014716154942561795 0.6034986320839748 1.5094085520839744     C
C     0.509408552083975 0.6034986320839737 0.9018089707746126     C
C     0.0038030292253868735 0.5025785279160259 1.4084884479160258     C
C     -0.39650136791602586 0.9018089707746126 0.9852838450574389     C
C     -0.014716154942562499 1.509408552083974 0.6034986320839744     C
C     0.40848844791602545 1.0851299949425612 1.0038030292253879     C
C     0.0038030292253868948 0.40848844791602545 1.0851299949425617     C
C     0.0038030292253867486 1.0851299949425615 0.5025785279160262     C
C     0.4084884479160248 1.0038030292253879 0.5025785279160253     C
C     0.6034986320839746 0.509408552083974 0.9018089707746126     C
C     0.6034986320839734 0.9852838450574389 0.5094085520839738     C
C     -0.014716154942562181 0.9018089707746135 0.5094085520839747     C
C     -0.014716154942561377 0.6034986320839736 0.9018089707746129     C
C     0.408488447916026 0.5025785279160256 1.0851299949425612     C
C     0.30881657000000007 0.9959518499999999 0.6992797300000001     C
C     -0.004048150000000316 1.3088165699999998 0.99595185     C
C     -0.30072027000000007 0.9959518499999999 1.30881657     C
C     -0.004048150000000316 0.6992797299999999 0.99595185     C
C     0.3088165700000002 0.9959518499999999 0.99595185     C
C     0.30881657000000007 0.6992797299999999 0.99595185     C
C     -0.004048150000000554 1.3088165699999998 0.6992797300000001     C
C     -0.00404815000000011 0.9959518499999999 0.6992797300000001     C
C     -0.00404815000000011 0.6992797299999999 1.30881657     C
C     -0.3007202700000002 1.3088165699999998 0.99595185     C
C     -0.3007202700000001 0.9959518499999999 0.99595185     C
C     -0.00404815000000011 0.9959518499999999 1.30881657     C
O     0.06730802999999999 0.06730802999999999 0.79807592     O
O     0.06730802999999999 0.06730802999999999 0.06730803     O
O     0.79807592 0.06730802999999999 0.06730803     O
O     0.06730802999999999 0.79807592 0.06730803     O
O     0.07472636999999994 0.7379187399999999 0.92010767     O
O     -0.26208126000000015 1.07472637 1.26724722     O
O     -0.07989232999999991 1.2672472199999998 1.07472637     O
O     0.26724722 0.92010767 0.73791874     O
O     0.07472637000000004 1.2672472199999998 0.73791874     O
O     0.07472637000000014 0.9201076699999998 1.26724722     O
O     0.2672472200000002 1.0747263699999998 0.92010767     O
O     -0.2620812599999995 1.2672472199999998 0.92010767     O
O     -0.26208126000000015 0.9201076699999998 1.07472637     O
O     -0.07989233000000054 1.07472637 0.73791874     O
O     -0.07989233000000019 0.7379187399999999 1.26724722     O
O     0.2672472200000001 0.7379187399999999 1.07472637     O
O     0.07472637000000003 0.7379187399999999 1.26724722     O
O     -0.2620812599999995 1.0747263699999998 0.92010767     O
O     -0.07989232999999984 1.2672472199999998 0.73791874     O
O     0.26724722 0.9201076699999998 1.07472637     O
O     0.07472637000000006 1.2672472199999998 0.92010767     O
O     0.07472636999999999 0.92010767 0.73791874     O
O     0.26724722 1.07472637 0.73791874     O
O     -0.26208126000000004 1.2672472199999998 1.07472637     O
O     -0.26208125999999965 0.9201076699999998 1.26724722     O
O     -0.07989232999999997 1.07472637 1.26724722     O
O     -0.07989233000000036 0.7379187399999999 1.07472637     O
O     0.26724721999999995 0.7379187399999999 0.92010767     O
O     0.9495820799999999 0.94958208 0.15125376     O
O     0.9495820800000001 0.9495820799999999 0.94958208     O
O     0.15125375999999985 0.9495820799999999 0.94958208     O
O     0.9495820799999999 0.15125375999999996 0.94958208     O
N     0.013743949491248917 0.49871833842922725 1.1757899542642511     N
H     0.021030926987125855 0.42665687824054854 1.2422462848338691     H
H     0.013804608713616278 0.5679266150841858 1.1763431588454494     H
N     -0.023155986214059045 0.5128335789507055 0.8105182476986933     N
H     -0.02934262275269023 0.5845760525531658 0.7435995493442671     H
H     -0.02320748583262093 0.44362264694539416 0.8099611942143958     H
N     0.49871833842922597 1.0137439494912504 0.31174775781527203     N
H     0.42665687824054677 1.0210309269871283 0.3100659099384561     H
H     0.5679266150841837 1.0138046087136188 0.24192561735674842     H
N     0.5128335789507046 0.9768440137859419 0.6998041595646599     N
H     0.5845760525531649 0.9706573772473114 0.7011670208552566     H
H     0.4436226469453937 0.9767925141673803 0.76962364467283     H
N     0.013743949491248582 1.3117477578152723 0.49871833842922725     N
H     0.021030926987126285 1.3100659099384573 0.42665687824054777     H
H     0.013804608713616742 1.241925617356749 0.5679266150841855     H
N     -0.02315598621405812 0.6998041595646601 1.5128335789507055     N
H     -0.029342622752688927 0.7011670208552571 1.5845760525531658     H
H     -0.02320748583261992 0.7696236446728308 1.4436226469453939     H
N     0.013743949491249166 1.1757899542642514 0.3117477578152729     N
H     0.02103092698712674 1.2422462848338682 0.31006590993845773     H
H     0.013804608713617432 1.1763431588454487 0.241925617356749     H
N     -0.023155986214058264 0.8105182476986925 0.6998041595646601     N
H     -0.029342622752688955 0.7435995493442661 0.7011670208552571     H
H     -0.023207485832619983 0.8099611942143953 0.7696236446728305     H
N     0.5128335789507054 0.8105182476986925 0.9768440137859421     N
H     0.5845760525531654 0.7435995493442663 0.9706573772473112     H
H     0.4436226469453939 0.809961194214395 0.9767925141673801     H
N     -0.5012816615707738 1.175789954264251 1.0137439494912504     N
H     -0.5733431217594527 1.2422462848338673 1.0210309269871287     H
H     -0.43207338491581604 1.176343158845448 1.0138046087136188     H
N     0.49871833842922697 0.3117477578152723 1.175789954264251     N
H     0.42665687824054815 0.3100659099384568 1.2422462848338676     H
H     0.5679266150841847 0.24192561735674914 1.1763431588454483     H
N     0.5128335789507059 0.6998041595646596 0.8105182476986921     N
H     0.5845760525531666 0.7011670208552563 0.743599549344266     H
H     0.44362264694539494 0.7696236446728303 0.8099611942143942     H
