data_I
_chemical_name_common  'CH3/60/modified_CH3_60'
_cell_length_a 14.67267
_cell_length_b 14.67267
_cell_length_c 14.67267
_cell_angle_alpha 60.00000
_cell_angle_beta  60.00000
_cell_angle_gamma 60.00000
_space_group_name_H-M_alt      'P 1'


loop_
_space_group_symop_operation_xyz
  'x, y, z' 

loop_
_atom_site_label
_atom_site_fract_x
_atom_site_fract_y
_atom_site_fract_z
_atom_site_type_symbol
Zr    0.11979582999999991 0.88020417 0.88020417    Zr
Zr    0.8802041699999997 0.11979582999999998 0.11979583    Zr
Zr    0.11979582999999996 0.11979583000000002 0.88020417    Zr
Zr    0.11979583000000003 0.8802041699999997 0.11979583    Zr
Zr    0.8802041699999997 0.11979583000000002 0.88020417    Zr
Zr    0.8802041699999998 0.8802041699999997 0.11979583    Zr
H     0.09439580999999993 0.71681257 0.09439581     H
H     0.7168125700000001 0.09439580999999998 0.09439581     H
H     0.09439580999999996 0.09439580999999998 0.09439581     H
H     0.09439580999999994 0.09439581 0.71681257     H
H     0.15623592865868616 0.5033041299144277 1.3309248599144279     H
H     -0.31813069491442775 0.9767677613413138 0.8318728984875416     H
H     -0.16812710151245774 1.5094900350855718 0.681869305085572     H
H     0.33092485991442766 1.0095350815124582 1.1562359286586865     H
H     0.15623592865868605 0.33092485991442777 1.0095350815124584     H
H     0.15623592865868635 1.0095350815124582 0.5033041299144277     H
H     0.33092485991442744 1.1562359286586867 0.5033041299144275     H
H     0.6818693050855721 0.5094900350855724 0.9767677613413134     H
H     0.681869305085572 0.831872898487542 0.5094900350855719     H
H     -0.16812710151245808 0.9767677613413142 0.5094900350855723     H
H     -0.16812710151245844 0.6818693050855725 0.9767677613413134     H
H     0.3309248599144278 0.5033041299144279 1.0095350815124577     H
C     -0.006212760000000258 0.60055787 0.9937872400000001     C
C     -0.3994421300000001 0.9937872399999998 1.4118676500000003     C
C     -0.0062127600000004245 1.4118676500000003 0.9937872400000001     C
C     0.41186764999999936 0.99378724 0.60055787     C
C     -0.006212760000000525 1.41186765 0.60055787     C
C     -0.0062127600000000715 0.9937872399999998 1.4118676500000003     C
C     0.4118676499999999 0.99378724 0.9937872400000001     C
C     -0.39944212999999973 1.4118676500000003 0.9937872400000001     C
C     -0.39944213000000023 0.99378724 0.9937872400000001     C
C     -0.006212759999999998 0.99378724 0.60055787     C
C     -0.006212760000000127 0.6005578699999998 1.4118676500000003     C
C     0.4118676499999998 0.60055787 0.9937872400000001     C
C     0.08576550922538692 0.5030169679160257 1.0022906349425615     C
C     0.5030169679160252 1.0857655092253873 0.40892688791602566     C
C     -0.09755551494256157 0.5098469920839742 0.983771450774613     C
C     0.5098469920839737 0.9024444850574386 0.6039370720839744     C
C     0.08576550922538709 1.4089268879160253 0.5030169679160253     C
C     0.08576550922538702 1.0022906349425618 0.40892688791602577     C
C     0.5098469920839742 0.9837714507746129 0.9024444850574388     C
C     0.5030169679160259 0.40892688791602566 1.0022906349425613     C
C     -0.49698303208397443 1.0022906349425609 1.0857655092253877     C
C     -0.09755551494256148 0.9837714507746128 0.6039370720839744     C
C     -0.097555514942562 0.6039370720839745 1.509846992083974     C
C     0.5098469920839744 0.6039370720839741 0.9837714507746126     C
C     0.08576550922538699 0.5030169679160258 1.4089268879160255     C
C     -0.39606292791602593 0.9837714507746129 0.9024444850574388     C
C     -0.0975555149425614 1.5098469920839739 0.603937072083974     C
C     0.40892688791602577 1.0022906349425609 1.0857655092253877     C
C     0.08576550922538692 0.40892688791602555 1.0022906349425615     C
C     0.08576550922538688 1.0022906349425615 0.5030169679160258     C
C     0.40892688791602533 1.0857655092253873 0.5030169679160256     C
C     0.6039370720839745 0.5098469920839743 0.9837714507746126     C
C     0.603937072083974 0.9024444850574388 0.5098469920839741     C
C     -0.09755551494256151 0.9837714507746134 0.5098469920839743     C
C     -0.09755551494256158 0.6039370720839741 0.9837714507746127     C
C     0.40892688791602577 0.5030169679160258 1.002290634942561     C
C     0.30881657000000007 0.9959518499999999 0.6992797300000001     C
C     -0.004048150000000316 1.3088165699999998 0.99595185     C
C     -0.30072027000000007 0.9959518499999999 1.30881657     C
C     -0.004048150000000316 0.6992797299999999 0.99595185     C
C     0.3088165700000002 0.9959518499999999 0.99595185     C
C     0.30881657000000007 0.6992797299999999 0.99595185     C
C     -0.004048150000000554 1.3088165699999998 0.6992797300000001     C
C     -0.00404815000000011 0.9959518499999999 0.6992797300000001     C
C     -0.00404815000000011 0.6992797299999999 1.30881657     C
C     -0.3007202700000002 1.3088165699999998 0.99595185     C
C     -0.3007202700000001 0.9959518499999999 0.99595185     C
C     -0.00404815000000011 0.9959518499999999 1.30881657     C
O     0.06730802999999999 0.06730802999999999 0.79807592     O
O     0.06730802999999999 0.06730802999999999 0.06730803     O
O     0.79807592 0.06730802999999999 0.06730803     O
O     0.06730802999999999 0.79807592 0.06730803     O
O     0.07472636999999994 0.7379187399999999 0.92010767     O
O     -0.26208126000000015 1.07472637 1.26724722     O
O     -0.07989232999999991 1.2672472199999998 1.07472637     O
O     0.26724722 0.92010767 0.73791874     O
O     0.07472637000000004 1.2672472199999998 0.73791874     O
O     0.07472637000000014 0.9201076699999998 1.26724722     O
O     0.2672472200000002 1.0747263699999998 0.92010767     O
O     -0.2620812599999995 1.2672472199999998 0.92010767     O
O     -0.26208126000000015 0.9201076699999998 1.07472637     O
O     -0.07989233000000054 1.07472637 0.73791874     O
O     -0.07989233000000019 0.7379187399999999 1.26724722     O
O     0.2672472200000001 0.7379187399999999 1.07472637     O
O     0.07472637000000003 0.7379187399999999 1.26724722     O
O     -0.2620812599999995 1.0747263699999998 0.92010767     O
O     -0.07989232999999984 1.2672472199999998 0.73791874     O
O     0.26724722 0.9201076699999998 1.07472637     O
O     0.07472637000000006 1.2672472199999998 0.92010767     O
O     0.07472636999999999 0.92010767 0.73791874     O
O     0.26724722 1.07472637 0.73791874     O
O     -0.26208126000000004 1.2672472199999998 1.07472637     O
O     -0.26208125999999965 0.9201076699999998 1.26724722     O
O     -0.07989232999999997 1.07472637 1.26724722     O
O     -0.07989233000000036 0.7379187399999999 1.07472637     O
O     0.26724721999999995 0.7379187399999999 0.92010767     O
O     0.9495820799999999 0.94958208 0.15125376     O
O     0.9495820800000001 0.9495820799999999 0.94958208     O
O     0.15125375999999985 0.9495820799999999 0.94958208     O
O     0.9495820799999999 0.15125375999999996 0.94958208     O
C     0.18631761000466093 0.4992444745555683 1.0115866809807326     C
H     0.24945358183211733 0.4165994549013223 1.0174236042893865     H
H     0.22221712070026373 0.5608312064410524 0.938309270256916     H
H     0.16126769302050573 0.5175269868546775 1.0858671371094237     H
C     -0.19741286144181444 0.5140987949969699 0.9728220313513448     C
H     -0.26011260183988694 0.5970447698194438 0.9659469662768514     H
H     -0.171313429044124 0.49528500676422854 0.8985546116763832     H
H     -0.23428692341187318 0.4530950566508845 1.0459080062708206     H
C     0.4992444745555679 1.1863176100046617 0.30285123445903867     C
H     0.4165994549013218 1.2494535818321186 0.31652335897717426     H
H     0.560831206441052 1.2222171207002641 0.27864240260176876     H
H     0.517526986854677 1.1612676930205073 0.23533818301539386     H
C     0.5140987949969695 0.8025871385581865 0.7104920350934997     C
H     0.5970447698194433 0.7398873981601138 0.6971208657435916     H
H     0.49528500676422815 0.8286865709558773 0.7774738106035121     H
H     0.45309505665088423 0.7657130765881273 0.7352838604901675     H
C     0.18631761000466157 1.3028512344590377 0.49924447455556786     C
H     0.2494535818321173 1.3165233589771745 0.4165994549013215     H
H     0.22221712070026325 1.2786424026017686 0.560831206441052     H
H     0.16126769302050584 1.2353381830153933 0.5175269868546776     H
C     -0.19741286144181308 0.7104920350934995 1.51409879499697     C
H     -0.26011260183988644 0.6971208657435917 1.597044769819444     H
H     -0.17131342904412297 0.7774738106035116 1.495285006764229     H
H     -0.23428692341187268 0.7352838604901678 1.4530950566508847     H
C     0.18631761000466174 1.0115866809807323 0.3028512344590386     C
H     0.24945358183211783 1.017423604289386 0.3165233589771749     H
H     0.22221712070026445 0.938309270256915 0.27864240260176876     H
H     0.1612676930205066 1.0858671371094228 0.2353381830153944     H
C     -0.1974128614418135 0.9728220313513439 0.7104920350934997     C
H     -0.26011260183988666 0.9659469662768511 0.6971208657435916     H
H     -0.17131342904412283 0.8985546116763817 0.7774738106035123     H
H     -0.2342869234118728 1.04590800627082 0.7352838604901681     H
C     0.51409879499697 0.9728220313513438 0.8025871385581865     C
H     0.5970447698194434 0.9659469662768505 0.739887398160114     H
H     0.4952850067642287 0.8985546116763825 0.8286865709558772     H
H     0.45309505665088456 1.0459080062708206 0.7657130765881273     H
C     -0.5007555254444322 1.0115866809807315 1.186317610004662     C
H     -0.5834005450986784 1.017423604289385 1.2494535818321189     H
H     -0.4391687935589484 0.9383092702569146 1.2222171207002643     H
H     -0.48247301314532304 1.085867137109422 1.1612676930205068     H
C     0.49924447455556786 0.3028512344590387 1.011586680980732     C
H     0.41659945490132166 0.31652335897717465 1.0174236042893854     H
H     0.5608312064410519 0.27864240260176865 0.9383092702569149     H
H     0.517526986854677 0.23533818301539397 1.0858671371094222     H
C     0.5140987949969706 0.7104920350934996 0.9728220313513434     C
H     0.5970447698194445 0.6971208657435912 0.9659469662768503     H
H     0.49528500676422954 0.7774738106035117 0.8985546116763818     H
H     0.4530950566508853 0.7352838604901679 1.0459080062708195     H
