data_I
_chemical_name_common  'OH/120/modified_OH_120'
_cell_length_a 14.67267
_cell_length_b 14.67267
_cell_length_c 14.67267
_cell_angle_alpha 60.00000
_cell_angle_beta  60.00000
_cell_angle_gamma 60.00000
_space_group_name_H-M_alt      'P 1'


loop_
_space_group_symop_operation_xyz
  'x, y, z' 

loop_
_atom_site_label
_atom_site_fract_x
_atom_site_fract_y
_atom_site_fract_z
_atom_site_type_symbol
Zr    0.11979582999999991 0.88020417 0.88020417    Zr
Zr    0.8802041699999997 0.11979582999999998 0.11979583    Zr
Zr    0.11979582999999996 0.11979583000000002 0.88020417    Zr
Zr    0.11979583000000003 0.8802041699999997 0.11979583    Zr
Zr    0.8802041699999997 0.11979583000000002 0.88020417    Zr
Zr    0.8802041699999998 0.8802041699999997 0.11979583    Zr
H     0.09439580999999993 0.71681257 0.09439581     H
H     0.7168125700000001 0.09439580999999998 0.09439581     H
H     0.09439580999999996 0.09439580999999998 0.09439581     H
H     0.09439580999999994 0.09439581 0.71681257     H
H     -0.16866144865868674 0.681500660085572 1.5091213900855724     H
H     -0.31849933991442775 0.8313385513413134 0.978039398487542     H
H     0.15570158151245664 1.3305562149144279 0.5029354849144281     H
H     0.3305562149144277 1.155701581512458 1.0108067186586867     H
H     0.010806718658686175 0.33055621491442755 1.1557015815124585     H
H     0.010806718658686225 1.155701581512458 0.502935484914428     H
H     0.33055621491442677 1.0108067186586869 0.5029354849144272     H
H     0.5029354849144276 0.33055621491442766 1.0108067186586867     H
H     0.6815006600855712 0.9780393984875422 0.509121390085572     H
H     -0.021960601512458634 0.8313385513413143 0.5091213900855727     H
H     -0.021960601512458162 0.681500660085572 0.8313385513413135     H
H     0.5091213900855721 0.6815006600855722 0.9780393984875417     H
C     -0.006212760000000258 0.60055787 0.9937872400000001     C
C     -0.3994421300000001 0.9937872399999998 1.4118676500000003     C
C     -0.0062127600000004245 1.4118676500000003 0.9937872400000001     C
C     0.41186764999999936 0.99378724 0.60055787     C
C     -0.006212760000000525 1.41186765 0.60055787     C
C     -0.0062127600000000715 0.9937872399999998 1.4118676500000003     C
C     0.4118676499999999 0.99378724 0.9937872400000001     C
C     -0.39944212999999973 1.4118676500000003 0.9937872400000001     C
C     -0.39944213000000023 0.99378724 0.9937872400000001     C
C     -0.006212759999999998 0.99378724 0.60055787     C
C     -0.006212760000000127 0.6005578699999998 1.4118676500000003     C
C     0.4118676499999998 0.60055787 0.9937872400000001     C
C     0.0038030292253867343 0.5025785279160255 1.0851299949425617     C
C     0.5025785279160249 1.0038030292253874 0.4084884479160257     C
C     -0.014716154942561753 0.509408552083974 0.9018089707746132     C
C     0.5094085520839735 0.9852838450574386 0.6034986320839744     C
C     -0.09819102922538842 1.5094085520839744 0.603498632083975     C
C     0.0038030292253866047 1.0851299949425617 0.4084884479160261     C
C     0.5094085520839743 0.9018089707746126 0.9852838450574389     C
C     0.6034986320839741 0.5094085520839744 0.9852838450574386     C
C     -0.49742147208397475 1.0851299949425612 1.0038030292253879     C
C     -0.014716154942561444 0.9018089707746126 0.6034986320839744     C
C     0.08512999494256138 0.5025785279160255 1.4084884479160253     C
C     0.4084884479160258 0.5025785279160254 1.0038030292253874     C
C     -0.09819102922538749 0.6034986320839743 1.5094085520839742     C
C     -0.39650136791602586 0.9018089707746126 0.9852838450574389     C
C     0.08512999494255992 1.408488447916026 0.5025785279160265     C
C     0.40848844791602545 1.0851299949425612 1.0038030292253879     C
C     0.0038030292253868948 0.40848844791602545 1.0851299949425617     C
C     0.0038030292253867486 1.0851299949425615 0.5025785279160262     C
C     0.4084884479160248 1.0038030292253879 0.5025785279160253     C
C     0.5025785279160256 0.4084884479160257 1.0038030292253874     C
C     0.6034986320839734 0.9852838450574389 0.5094085520839738     C
C     -0.014716154942562181 0.9018089707746135 0.5094085520839747     C
C     -0.014716154942561377 0.6034986320839736 0.9018089707746129     C
C     0.509408552083974 0.6034986320839744 0.9852838450574386     C
C     0.30881657000000007 0.9959518499999999 0.6992797300000001     C
C     -0.004048150000000316 1.3088165699999998 0.99595185     C
C     -0.30072027000000007 0.9959518499999999 1.30881657     C
C     -0.004048150000000316 0.6992797299999999 0.99595185     C
C     0.3088165700000002 0.9959518499999999 0.99595185     C
C     0.30881657000000007 0.6992797299999999 0.99595185     C
C     -0.004048150000000554 1.3088165699999998 0.6992797300000001     C
C     -0.00404815000000011 0.9959518499999999 0.6992797300000001     C
C     -0.00404815000000011 0.6992797299999999 1.30881657     C
C     -0.3007202700000002 1.3088165699999998 0.99595185     C
C     -0.3007202700000001 0.9959518499999999 0.99595185     C
C     -0.00404815000000011 0.9959518499999999 1.30881657     C
O     0.06730802999999999 0.06730802999999999 0.79807592     O
O     0.06730802999999999 0.06730802999999999 0.06730803     O
O     0.79807592 0.06730802999999999 0.06730803     O
O     0.06730802999999999 0.79807592 0.06730803     O
O     0.07472636999999994 0.7379187399999999 0.92010767     O
O     -0.26208126000000015 1.07472637 1.26724722     O
O     -0.07989232999999991 1.2672472199999998 1.07472637     O
O     0.26724722 0.92010767 0.73791874     O
O     0.07472637000000004 1.2672472199999998 0.73791874     O
O     0.07472637000000014 0.9201076699999998 1.26724722     O
O     0.2672472200000002 1.0747263699999998 0.92010767     O
O     -0.2620812599999995 1.2672472199999998 0.92010767     O
O     -0.26208126000000015 0.9201076699999998 1.07472637     O
O     -0.07989233000000054 1.07472637 0.73791874     O
O     -0.07989233000000019 0.7379187399999999 1.26724722     O
O     0.2672472200000001 0.7379187399999999 1.07472637     O
O     0.07472637000000003 0.7379187399999999 1.26724722     O
O     -0.2620812599999995 1.0747263699999998 0.92010767     O
O     -0.07989232999999984 1.2672472199999998 0.73791874     O
O     0.26724722 0.9201076699999998 1.07472637     O
O     0.07472637000000006 1.2672472199999998 0.92010767     O
O     0.07472636999999999 0.92010767 0.73791874     O
O     0.26724722 1.07472637 0.73791874     O
O     -0.26208126000000004 1.2672472199999998 1.07472637     O
O     -0.26208125999999965 0.9201076699999998 1.26724722     O
O     -0.07989232999999997 1.07472637 1.26724722     O
O     -0.07989233000000036 0.7379187399999999 1.07472637     O
O     0.26724721999999995 0.7379187399999999 0.92010767     O
O     0.9495820799999999 0.94958208 0.15125376     O
O     0.9495820800000001 0.9495820799999999 0.94958208     O
O     0.15125375999999985 0.9495820799999999 0.94958208     O
O     0.9495820799999999 0.15125375999999996 0.94958208     O
O     0.013599878183047942 0.49877428320439776 1.174476041810314     O
H     0.01903730543675711 0.41716348653740626 1.224064703669799     H
O     -0.023033669818819807 0.5127839408801732 0.8118413016563152     O
H     -0.027650040068758933 0.5941567148061242 0.761907628275142     H
O     0.4987742832043968 1.0135998781830498 0.31314979680223937     O
H     0.41716348653740437 1.019037305436759 0.3397345043560374     H
O     0.5127839408801724 0.9769663301811813 0.6984084272823308     O
H     0.5941567148061233 0.9723499599312418 0.6715856969874918     H
O     -0.18815869834368704 1.5127839408801735 0.6984084272823317     O
H     -0.23809237172485925 1.5941567148061244 0.6715856969874932     H
O     0.1744760418103131 0.4987742832043979 1.3131497968022394     O
H     0.22406470366979747 0.41716348653740587 1.3397345043560371     H
O     0.013599878183047904 1.1744760418103142 0.3131497968022404     O
H     0.019037305436757388 1.2240647036697987 0.33973450435603864     H
O     -0.023033669818818603 0.811841301656314 0.6984084272823314     O
H     -0.027650040068758548 0.7619076282751419 0.6715856969874923     H
O     0.5127839408801729 0.8118413016563145 0.9769663301811815     O
H     0.594156714806124 0.7619076282751416 0.9723499599312422     H
O     -0.5012257167956027 1.174476041810313 1.0135998781830495     O
H     -0.582836513462595 1.2240647036697978 1.0190373054367592     H
O     0.6984084272823312 0.5127839408801734 0.9769663301811804     O
H     0.6715856969874923 0.5941567148061243 0.9723499599312413     H
O     0.3131497968022398 0.4987742832043975 1.0135998781830493     O
H     0.339734504356038 0.4171634865374053 1.019037305436759     H
