data_I
_chemical_name_common  'CF3/120/modified_CF3_120'
_cell_length_a 14.67267
_cell_length_b 14.67267
_cell_length_c 14.67267
_cell_angle_alpha 60.00000
_cell_angle_beta  60.00000
_cell_angle_gamma 60.00000
_space_group_name_H-M_alt      'P 1'


loop_
_space_group_symop_operation_xyz
  'x, y, z' 

loop_
_atom_site_label
_atom_site_fract_x
_atom_site_fract_y
_atom_site_fract_z
_atom_site_type_symbol
Zr    0.11979582999999991 0.88020417 0.88020417    Zr
Zr    0.8802041699999997 0.11979582999999998 0.11979583    Zr
Zr    0.11979582999999996 0.11979583000000002 0.88020417    Zr
Zr    0.11979583000000003 0.8802041699999997 0.11979583    Zr
Zr    0.8802041699999997 0.11979583000000002 0.88020417    Zr
Zr    0.8802041699999998 0.8802041699999997 0.11979583    Zr
H     0.09439580999999993 0.71681257 0.09439581     H
H     0.7168125700000001 0.09439580999999998 0.09439581     H
H     0.09439580999999996 0.09439580999999998 0.09439581     H
H     0.09439580999999994 0.09439581 0.71681257     H
H     0.010806718658686463 0.5029354849144274 1.3305562149144279     H
H     -0.31849933991442775 0.8313385513413134 0.978039398487542     H
H     -0.021960601512458724 1.509121390085572 0.6815006600855721     H
H     0.3305562149144277 1.155701581512458 1.0108067186586867     H
H     0.010806718658686175 0.33055621491442755 1.1557015815124585     H
H     0.010806718658686225 1.155701581512458 0.502935484914428     H
H     0.33055621491442677 1.0108067186586869 0.5029354849144272     H
H     0.6815006600855724 0.509121390085572 0.8313385513413134     H
H     0.6815006600855712 0.9780393984875422 0.509121390085572     H
H     -0.021960601512458634 0.8313385513413143 0.5091213900855727     H
H     -0.021960601512458162 0.681500660085572 0.8313385513413135     H
H     0.33055621491442777 0.5029354849144276 1.155701581512458     H
C     -0.006212760000000258 0.60055787 0.9937872400000001     C
C     -0.3994421300000001 0.9937872399999998 1.4118676500000003     C
C     -0.0062127600000004245 1.4118676500000003 0.9937872400000001     C
C     0.41186764999999936 0.99378724 0.60055787     C
C     -0.006212760000000525 1.41186765 0.60055787     C
C     -0.0062127600000000715 0.9937872399999998 1.4118676500000003     C
C     0.4118676499999999 0.99378724 0.9937872400000001     C
C     -0.39944212999999973 1.4118676500000003 0.9937872400000001     C
C     -0.39944213000000023 0.99378724 0.9937872400000001     C
C     -0.006212759999999998 0.99378724 0.60055787     C
C     -0.006212760000000127 0.6005578699999998 1.4118676500000003     C
C     0.4118676499999998 0.60055787 0.9937872400000001     C
C     0.0038030292253867343 0.5025785279160255 1.0851299949425617     C
C     0.5025785279160249 1.0038030292253874 0.4084884479160257     C
C     -0.014716154942561753 0.509408552083974 0.9018089707746132     C
C     0.5094085520839735 0.9852838450574386 0.6034986320839744     C
C     0.0038030292253862924 1.4084884479160253 0.5025785279160259     C
C     0.0038030292253866047 1.0851299949425617 0.4084884479160261     C
C     0.5094085520839743 0.9018089707746126 0.9852838450574389     C
C     0.5025785279160262 0.40848844791602557 1.0851299949425612     C
C     -0.49742147208397475 1.0851299949425612 1.0038030292253879     C
C     -0.014716154942561444 0.9018089707746126 0.6034986320839744     C
C     -0.014716154942561795 0.6034986320839748 1.5094085520839744     C
C     0.509408552083975 0.6034986320839737 0.9018089707746126     C
C     0.0038030292253868735 0.5025785279160259 1.4084884479160258     C
C     -0.39650136791602586 0.9018089707746126 0.9852838450574389     C
C     -0.014716154942562499 1.509408552083974 0.6034986320839744     C
C     0.40848844791602545 1.0851299949425612 1.0038030292253879     C
C     0.0038030292253868948 0.40848844791602545 1.0851299949425617     C
C     0.0038030292253867486 1.0851299949425615 0.5025785279160262     C
C     0.4084884479160248 1.0038030292253879 0.5025785279160253     C
C     0.6034986320839746 0.509408552083974 0.9018089707746126     C
C     0.6034986320839734 0.9852838450574389 0.5094085520839738     C
C     -0.014716154942562181 0.9018089707746135 0.5094085520839747     C
C     -0.014716154942561377 0.6034986320839736 0.9018089707746129     C
C     0.408488447916026 0.5025785279160256 1.0851299949425612     C
C     0.30881657000000007 0.9959518499999999 0.6992797300000001     C
C     -0.004048150000000316 1.3088165699999998 0.99595185     C
C     -0.30072027000000007 0.9959518499999999 1.30881657     C
C     -0.004048150000000316 0.6992797299999999 0.99595185     C
C     0.3088165700000002 0.9959518499999999 0.99595185     C
C     0.30881657000000007 0.6992797299999999 0.99595185     C
C     -0.004048150000000554 1.3088165699999998 0.6992797300000001     C
C     -0.00404815000000011 0.9959518499999999 0.6992797300000001     C
C     -0.00404815000000011 0.6992797299999999 1.30881657     C
C     -0.3007202700000002 1.3088165699999998 0.99595185     C
C     -0.3007202700000001 0.9959518499999999 0.99595185     C
C     -0.00404815000000011 0.9959518499999999 1.30881657     C
O     0.06730802999999999 0.06730802999999999 0.79807592     O
O     0.06730802999999999 0.06730802999999999 0.06730803     O
O     0.79807592 0.06730802999999999 0.06730803     O
O     0.06730802999999999 0.79807592 0.06730803     O
O     0.07472636999999994 0.7379187399999999 0.92010767     O
O     -0.26208126000000015 1.07472637 1.26724722     O
O     -0.07989232999999991 1.2672472199999998 1.07472637     O
O     0.26724722 0.92010767 0.73791874     O
O     0.07472637000000004 1.2672472199999998 0.73791874     O
O     0.07472637000000014 0.9201076699999998 1.26724722     O
O     0.2672472200000002 1.0747263699999998 0.92010767     O
O     -0.2620812599999995 1.2672472199999998 0.92010767     O
O     -0.26208126000000015 0.9201076699999998 1.07472637     O
O     -0.07989233000000054 1.07472637 0.73791874     O
O     -0.07989233000000019 0.7379187399999999 1.26724722     O
O     0.2672472200000001 0.7379187399999999 1.07472637     O
O     0.07472637000000003 0.7379187399999999 1.26724722     O
O     -0.2620812599999995 1.0747263699999998 0.92010767     O
O     -0.07989232999999984 1.2672472199999998 0.73791874     O
O     0.26724722 0.9201076699999998 1.07472637     O
O     0.07472637000000006 1.2672472199999998 0.92010767     O
O     0.07472636999999999 0.92010767 0.73791874     O
O     0.26724722 1.07472637 0.73791874     O
O     -0.26208126000000004 1.2672472199999998 1.07472637     O
O     -0.26208125999999965 0.9201076699999998 1.26724722     O
O     -0.07989232999999997 1.07472637 1.26724722     O
O     -0.07989233000000036 0.7379187399999999 1.07472637     O
O     0.26724721999999995 0.7379187399999999 0.92010767     O
O     0.9495820799999999 0.94958208 0.15125376     O
O     0.9495820800000001 0.9495820799999999 0.94958208     O
O     0.15125375999999985 0.9495820799999999 0.94958208     O
O     0.9495820799999999 0.15125375999999996 0.94958208     O
C     0.014680412994554838 0.4983546973906157 1.184330385214845     C
F     0.023508136324465745 0.3960988270920948 1.2648381266099031     F
F     0.10647469656160129 0.5213750184536956 1.155517685701666     F
F     -0.07493170125968561 0.5733149611702275 1.233044198089889     F
C     -0.023951042783112792 0.5131562264091656 0.80191839697415     C
F     -0.03144577097963272 0.6150256641530806 0.7208505255549135     F
F     0.06595168899990313 0.43746231333723906 0.7543812651549604     F
F     -0.11570643411005284 0.4907740304323726 0.8294159540746496     F
C     0.49835469739061466 1.0146804129945561 0.3026345043999838     C
F     0.39609882709209343 1.0235081363244678 0.31555490997353564     F
F     0.5213750184536937 1.1064746965616035 0.21663259928303674     F
F     0.5733149611702252 0.9250682987403169 0.26857254199956776     F
C     0.5131562264091645 0.9760489572168883 0.7088764193997968     C
F     0.615025664153079 0.9685542290203688 0.6955695812716383     F
F     0.43746231333723795 1.0659516889999043 0.7422047325078966     F
F     0.4907740304323717 0.8842935658899481 0.7955164496030304     F
C     0.014680412994554408 1.302634504399984 0.49835469739061583     C
F     0.023508136324466335 1.3155549099735364 0.3960988270920945     F
F     0.10647469656160143 1.2166325992830376 0.5213750184536956     F
F     -0.0749317012596848 1.2685725419995686 0.5733149611702261     F
C     -0.023951042783112116 0.708876419399797 1.513156226409166     C
F     -0.03144577097963096 0.6955695812716388 1.61502566415308     F
F     0.06595168899990374 0.7422047325078978 1.437462313337239     F
F     -0.11570643411005181 0.7955164496030307 1.4907740304323724     F
C     0.014680412994554762 1.1843303852148457 0.3026345043999847     C
F     0.023508136324467 1.2648381266099022 0.31555490997353697     F
F     0.10647469656160201 1.1555176857016658 0.21663259928303763     F
F     -0.07493170125968517 1.2330441980898899 0.26857254199956965     F
C     -0.023951042783111717 0.8019183969741491 0.708876419399797     C
F     -0.03144577097963115 0.7208505255549125 0.6955695812716385     F
F     0.06595168899990422 0.7543812651549603 0.7422047325078969     F
F     -0.11570643411005112 0.829415954074648 0.7955164496030311     F
C     0.5131562264091657 0.801918396974149 0.9760489572168881     C
F     0.6150256641530801 0.7208505255549122 0.9685542290203686     F
F     0.4374623133372389 0.7543812651549601 1.0659516889999043     F
F     0.4907740304323729 0.8294159540746485 0.884293565889948     F
C     -0.5016453026093852 1.1843303852148446 1.0146804129945564     C
F     -0.6039011729079062 1.2648381266099014 1.0235081363244682     F
F     -0.47862498154630534 1.1555176857016645 1.1064746965616035     F
F     -0.42668503882977393 1.233044198089889 0.9250682987403166     F
C     0.4983546973906154 0.30263450439998424 1.1843303852148455     C
F     0.39609882709209426 0.31555490997353647 1.2648381266099025     F
F     0.5213750184536953 0.21663259928303685 1.1555176857016651     F
F     0.5733149611702268 0.2685725419995687 1.233044198089889     F
C     0.5131562264091665 0.7088764193997963 0.8019183969741489     C
F     0.6150256641530811 0.6955695812716379 0.720850525554912     F
F     0.4374623133372395 0.7422047325078966 0.7543812651549595     F
F     0.49077403043237355 0.7955164496030305 0.8294159540746479     F
