data_I
_chemical_name_common  'COOH/0/modified_COOH_0'
_cell_length_a 14.67267
_cell_length_b 14.67267
_cell_length_c 14.67267
_cell_angle_alpha 60.00000
_cell_angle_beta  60.00000
_cell_angle_gamma 60.00000
_space_group_name_H-M_alt      'P 1'


loop_
_space_group_symop_operation_xyz
  'x, y, z' 

loop_
_atom_site_label
_atom_site_fract_x
_atom_site_fract_y
_atom_site_fract_z
_atom_site_type_symbol
Zr    0.8802041699999997 0.11979583000000002 0.88020417    Zr
Zr    0.11979583000000003 0.8802041699999997 0.11979583    Zr
Zr    0.11979582999999996 0.11979583000000002 0.88020417    Zr
Zr    0.11979582999999991 0.88020417 0.88020417    Zr
Zr    0.8802041699999997 0.11979582999999998 0.11979583    Zr
Zr    0.8802041699999998 0.8802041699999997 0.11979583    Zr
H     0.9056041899999999 0.9056041900000001 0.90560419     H
H     0.9056041899999999 0.90560419 0.28318743     H
H     0.28318743 0.9056041900000001 0.90560419     H
H     0.9056041899999999 0.28318743 0.90560419     H
H     1.1523792599999998 -0.4203917700000001 0.8607835500000001     H
H     0.5796082299999996 0.15237925999999982 1.40722896     H
H     0.8607835499999994 0.40722895999999975 1.15237926     H
H     1.4072289599999999 -0.13921645000000019 0.5796082300000001     H
H     0.4072289599999996 0.15237925999999996 0.8607835500000001     H
H     0.5796082299999998 0.4072289599999998 0.8607835500000001     H
H     1.1523792599999998 0.4072289599999999 0.5796082300000001     H
H     1.1523792600000002 -0.13921645000000046 0.40722896     H
H     0.8607835499999993 0.5796082299999997 0.40722896     H
H     0.40722896 0.5796082299999996 1.15237926     H
H     0.57960823 -0.1392164500000003 1.15237926     H
H     0.8607835499999998 0.1523792599999999 0.5796082300000001     H
C     0.5881323499999999 0.006212759999999944 1.00621276     C
C     1.0062127600000002 -0.4118676499999999 1.39944213     C
C     1.3994421299999997 0.006212759999999944 1.00621276     C
C     1.00621276 0.39944213 0.58813235     C
C     1.0062127599999997 0.39944213 1.00621276     C
C     1.3994421299999997 -0.41186765 1.00621276     C
C     1.3994421300000002 0.006212759999999983 0.58813235     C
C     1.0062127599999997 0.006212759999999983 1.39944213     C
C     0.5881323499999996 0.006212759999999983 1.39944213     C
C     0.5881323499999996 0.39944213 1.00621276     C
C     1.0062127599999995 -0.41186765 1.00621276     C
C     1.0062127600000002 0.006212759999999983 0.58813235     C
C     0.5403938399999998 0.0890521199999999 0.9242502800000002     C
C     1.0890521199999996 0.5403938399999999 0.44630376000000005     C
C     0.4463037599999997 -0.07574971999999991 1.08905212     C
C     0.9242502800000006 0.44630376 0.54039384     C
C     1.0890521199999998 0.4463037599999997 0.9242502800000002     C
C     0.44630376000000027 0.5403938399999999 0.9242502800000002     C
C     1.4463037599999997 0.08905211999999986 0.54039384     C
C     0.9242502799999999 0.08905211999999986 0.44630376000000005     C
C     0.5403938399999998 -0.07574972000000013 1.4463037600000002     C
C     0.5403938399999998 0.44630375999999994 1.08905212     C
C     0.9242502799999995 -0.45960616 1.08905212     C
C     1.0890521199999996 -0.0757497200000001 0.54039384     C
C     1.0890521199999996 -0.45960616000000004 0.9242502800000002     C
C     0.5403938399999996 0.08905211999999996 1.4463037600000002     C
C     0.9242502799999998 0.4463037599999997 1.08905212     C
C     1.44630376 -0.07574972000000005 0.54039384     C
C     0.4463037599999996 0.0890521199999999 0.9242502800000002     C
C     0.5403938399999998 0.4463037599999998 0.9242502800000002     C
C     1.08905212 0.44630376 0.54039384     C
C     1.0890521199999998 -0.0757497200000002 0.44630376000000005     C
C     0.9242502799999992 0.5403938399999999 0.44630376000000005     C
C     0.4463037599999998 0.5403938399999999 1.08905212     C
C     0.5403938399999998 -0.07574971999999991 1.08905212     C
C     0.9242502800000002 0.08905211999999986 0.54039384     C
C     1.00404815 0.30072026999999996 0.6911834300000002     C
C     1.3007202699999998 0.004048149999999947 1.00404815     C
C     1.00404815 -0.30881657 1.30072027     C
C     0.6911834299999998 0.004048149999999947 1.00404815     C
C     1.30072027 0.004048149999999968 0.6911834300000002     C
C     1.00404815 0.004048149999999968 0.6911834300000002     C
C     1.00404815 0.30072027 1.00404815     C
C     0.69118343 0.30072027 1.00404815     C
C     1.00404815 -0.30881657 1.00404815     C
C     1.00404815 0.004048149999999962 1.30072027     C
C     0.69118343 0.004048149999999962 1.30072027     C
C     1.3007202699999998 -0.30881657 1.00404815     C
O     0.93269198 0.20192407999999998 0.9326919700000001     O
O     0.20192408999999992 0.93269197 0.9326919700000001     O
O     0.9326919800000001 0.93269197 0.20192408     O
O     0.93269198 0.93269197 0.9326919700000001     O
O     0.7327527800000001 0.07989232999999998 0.9252736300000001     O
O     1.0798923299999998 -0.2672472200000003 1.26208126     O
O     1.26208126 -0.07472637000000008 1.07989233     O
O     0.9252736300000001 0.26208126 0.7327527800000001     O
O     1.07989233 0.26208126 0.9252736300000001     O
O     1.2620812599999998 -0.2672472200000001 0.9252736300000001     O
O     1.26208126 0.07989232999999993 0.7327527800000001     O
O     0.9252736300000001 0.07989232999999993 1.26208126     O
O     0.7327527800000001 -0.07472637000000035 1.26208126     O
O     0.7327527799999997 0.2620812599999999 1.07989233     O
O     0.9252736300000001 -0.26724722000000006 1.07989233     O
O     1.0798923299999998 -0.07472637000000015 0.7327527800000001     O
O     1.0798923299999998 -0.2672472200000001 0.9252736300000001     O
O     0.7327527799999997 0.07989232999999993 1.26208126     O
O     0.9252736299999996 0.2620812599999999 1.07989233     O
O     1.2620812599999998 -0.07472637000000015 0.7327527800000001     O
O     1.26208126 0.07989232999999998 0.9252736300000001     O
O     0.7327527799999999 0.26208126 0.9252736300000001     O
O     1.0798923299999998 0.26208126 0.7327527800000001     O
O     1.07989233 -0.07472637000000035 1.26208126     O
O     0.9252736299999998 -0.2672472200000003 1.26208126     O
O     1.26208126 -0.26724722000000006 1.07989233     O
O     0.7327527800000001 -0.07472637000000008 1.07989233     O
O     0.9252736299999998 0.07989232999999993 0.7327527800000001     O
O     0.050417919999999894 0.8487462400000001 0.050417920000000005     O
O     0.8487462399999999 0.05041791999999999 0.050417920000000005     O
O     0.05041792000000005 0.05041791999999999 0.84874624     O
O     0.050417920000000005 0.05041791999999999 0.050417920000000005     O
C     0.5900659998938368 0.17782602637303446 0.8364160726181261     C
O     0.5497864949058578 0.25350667828819007 0.7615365235851196     O
O     0.6751254244400354 0.1821758864136662 0.8321122571784237     O
H     0.5831235149688357 0.31308648122311283 0.7025873911140632     H
C     0.39569190111500174 -0.1635839273818735 1.1778260263730345     C
O     0.4351703032208317 -0.23846347641488014 1.2535066782881903     O
O     0.31058643196787245 -0.1678877428215762 1.1821758864136662     O
H     0.4012026126939872 -0.2974126088859365 1.3130864812231127     H
C     1.1778260263730342 0.5900659998938371 0.39569190111500213     C
O     1.2535066782881896 0.5497864949058581 0.4351703032208321     O
O     1.1821758864136658 0.6751254244400366 0.3105864319678734     O
H     1.313086481223112 0.5831235149688363 0.401202612693988     H
C     0.8364160726181262 0.39569190111500196 0.5900659998938377     C
O     0.7615365235851195 0.43517030322083167 0.5497864949058591     O
O     0.8321122571784245 0.31058643196787294 0.6751254244400374     O
H     0.7025873911140632 0.40120261269398744 0.5831235149688373     H
C     1.1778260263730342 0.3956919011150016 0.8364160726181266     C
O     1.2535066782881896 0.43517030322083144 0.76153652358512     O
O     1.182175886413666 0.3105864319678726 0.8321122571784247     O
H     1.3130864812231127 0.4012026126939871 0.702587391114064     H
C     0.8364160726181248 -0.4099340001061627 1.1778260263730345     C
O     0.7615365235851183 -0.4502135050941417 1.2535066782881896     O
O     0.8321122571784217 -0.3248745755599634 1.182175886413666     O
H     0.7025873911140615 -0.4168764850311637 1.3130864812231122     H
C     0.3956919011150022 0.5900659998938372 0.8364160726181261     C
O     0.43517030322083244 0.5497864949058584 0.7615365235851195     O
O     0.3105864319678737 0.6751254244400371 0.8321122571784237     O
H     0.40120261269398805 0.5831235149688364 0.7025873911140631     H
C     0.5900659998938372 0.39569190111500196 1.1778260263730345     C
O     0.5497864949058583 0.43517030322083206 1.25350667828819     O
O     0.6751254244400368 0.3105864319678731 1.182175886413666     O
H     0.5831235149688363 0.4012026126939877 1.3130864812231127     H
C     1.3956919011150024 0.1778260263730343 0.5900659998938373     C
O     1.4351703032208325 0.2535066782881896 0.5497864949058585     O
O     1.3105864319678737 0.1821758864136656 0.6751254244400369     O
H     1.401202612693989 0.31308648122311206 0.5831235149688366     H
C     0.5900659998938372 -0.16358392738187416 1.3956919011150024     C
O     0.5497864949058588 -0.2384634764148808 1.4351703032208318     O
O     0.6751254244400363 -0.16788774282157629 1.3105864319678733     O
H     0.583123514968837 -0.2974126088859372 1.401202612693988     H
C     0.8364160726181259 0.17782602637303463 0.39569190111500235     C
O     0.7615365235851195 0.25350667828818996 0.43517030322083256     O
O     0.8321122571784236 0.18217588641366614 0.31058643196787383     O
H     0.702587391114063 0.31308648122311256 0.40120261269398844     H
C     1.1778260263730338 -0.1635839273818742 0.5900659998938375     C
O     1.2535066782881892 -0.23846347641488116 0.5497864949058588     O
O     1.1821758864136656 -0.16788774282157695 0.675125424440037     O
H     1.3130864812231118 -0.2974126088859374 0.583123514968837     H
