data_I
_chemical_name_common  'CF3/150/modified_CF3_150'
_cell_length_a 14.67267
_cell_length_b 14.67267
_cell_length_c 14.67267
_cell_angle_alpha 60.00000
_cell_angle_beta  60.00000
_cell_angle_gamma 60.00000
_space_group_name_H-M_alt      'P 1'


loop_
_space_group_symop_operation_xyz
  'x, y, z' 

loop_
_atom_site_label
_atom_site_fract_x
_atom_site_fract_y
_atom_site_fract_z
_atom_site_type_symbol
Zr    0.11979582999999991 0.88020417 0.88020417    Zr
Zr    0.8802041699999997 0.11979582999999998 0.11979583    Zr
Zr    0.11979582999999996 0.11979583000000002 0.88020417    Zr
Zr    0.11979583000000003 0.8802041699999997 0.11979583    Zr
Zr    0.8802041699999997 0.11979583000000002 0.88020417    Zr
Zr    0.8802041699999998 0.8802041699999997 0.11979583    Zr
H     0.09439580999999993 0.71681257 0.09439581     H
H     0.7168125700000001 0.09439580999999998 0.09439581     H
H     0.09439580999999996 0.09439580999999998 0.09439581     H
H     0.09439580999999994 0.09439581 0.71681257     H
H     -0.08035015295647492 0.5405358130885453 1.368156543088545     H
H     -0.35636953495850165 0.8160338523318708 1.0690844875851324     H
H     0.06908448758513158 1.4712511950414984 0.6436304650414978     H
H     0.3681565430885455 1.171657796779384 0.9196498470435251     H
H     -0.08035015295647538 0.3681565430885457 1.1716577967793842     H
H     -0.08035015295647471 1.1716577967793842 0.5405358130885453     H
H     0.3681565430885444 0.9196498470435253 0.540535813088545     H
H     0.6436304650414987 0.4712511950414983 0.8160338523318708     H
H     0.6436304650414975 1.0690844875851322 0.4712511950414981     H
H     0.06908448758513137 0.8160338523318716 0.4712511950414987     H
H     0.06908448758513204 0.6436304650414982 0.816033852331871     H
H     0.3681565430885451 0.5405358130885455 1.1716577967793842     H
C     -0.006212760000000258 0.60055787 0.9937872400000001     C
C     -0.3994421300000001 0.9937872399999998 1.4118676500000003     C
C     -0.0062127600000004245 1.4118676500000003 0.9937872400000001     C
C     0.41186764999999936 0.99378724 0.60055787     C
C     -0.006212760000000525 1.41186765 0.60055787     C
C     -0.0062127600000000715 0.9937872399999998 1.4118676500000003     C
C     0.4118676499999999 0.99378724 0.9937872400000001     C
C     -0.39944212999999973 1.4118676500000003 0.9937872400000001     C
C     -0.39944213000000023 0.99378724 0.9937872400000001     C
C     -0.006212759999999998 0.99378724 0.60055787     C
C     -0.006212760000000127 0.6005578699999998 1.4118676500000003     C
C     0.4118676499999998 0.60055787 0.9937872400000001     C
C     -0.04775120128602617 0.5237449751679598 1.0943513309501063     C
C     0.5237449751679589 0.9522487987139744 0.4296548951679595     C
C     0.03670512943638228 0.4879211444759699 0.8933625016116776     C
C     0.48792114447596874 1.0367051294363827 0.58201122447597     C
C     -0.04775120128602656 1.4296548951679595 0.5237449751679597     C
C     -0.047751201286025766 1.0943513309501065 0.4296548951679598     C
C     0.4879211444759698 0.8933625016116773 1.0367051294363832     C
C     0.5237449751679597 0.4296548951679595 1.0943513309501063     C
C     -0.47625502483204074 1.0943513309501058 0.9522487987139753     C
C     0.03670512943638284 0.8933625016116777 0.5820112244759699     C
C     0.036705129436382634 0.5820112244759704 1.4879211444759695     C
C     0.48792114447596985 0.5820112244759696 0.8933625016116777     C
C     -0.047751201286025724 0.5237449751679599 1.4296548951679595     C
C     -0.41798877552403035 0.8933625016116773 1.0367051294363832     C
C     0.03670512943638145 1.48792114447597 0.5820112244759696     C
C     0.4296548951679595 1.0943513309501058 0.9522487987139753     C
C     -0.04775120128602595 0.4296548951679598 1.0943513309501063     C
C     -0.04775120128602572 1.0943513309501063 0.5237449751679599     C
C     0.4296548951679586 0.9522487987139745 0.5237449751679593     C
C     0.5820112244759699 0.4879211444759696 0.8933625016116777     C
C     0.5820112244759691 1.036705129436383 0.4879211444759693     C
C     0.03670512943638211 0.8933625016116777 0.48792114447597035     C
C     0.036705129436382836 0.5820112244759695 0.8933625016116774     C
C     0.4296548951679595 0.5237449751679594 1.0943513309501063     C
C     0.30881657000000007 0.9959518499999999 0.6992797300000001     C
C     -0.004048150000000316 1.3088165699999998 0.99595185     C
C     -0.30072027000000007 0.9959518499999999 1.30881657     C
C     -0.004048150000000316 0.6992797299999999 0.99595185     C
C     0.3088165700000002 0.9959518499999999 0.99595185     C
C     0.30881657000000007 0.6992797299999999 0.99595185     C
C     -0.004048150000000554 1.3088165699999998 0.6992797300000001     C
C     -0.00404815000000011 0.9959518499999999 0.6992797300000001     C
C     -0.00404815000000011 0.6992797299999999 1.30881657     C
C     -0.3007202700000002 1.3088165699999998 0.99595185     C
C     -0.3007202700000001 0.9959518499999999 0.99595185     C
C     -0.00404815000000011 0.9959518499999999 1.30881657     C
O     0.06730802999999999 0.06730802999999999 0.79807592     O
O     0.06730802999999999 0.06730802999999999 0.06730803     O
O     0.79807592 0.06730802999999999 0.06730803     O
O     0.06730802999999999 0.79807592 0.06730803     O
O     0.07472636999999994 0.7379187399999999 0.92010767     O
O     -0.26208126000000015 1.07472637 1.26724722     O
O     -0.07989232999999991 1.2672472199999998 1.07472637     O
O     0.26724722 0.92010767 0.73791874     O
O     0.07472637000000004 1.2672472199999998 0.73791874     O
O     0.07472637000000014 0.9201076699999998 1.26724722     O
O     0.2672472200000002 1.0747263699999998 0.92010767     O
O     -0.2620812599999995 1.2672472199999998 0.92010767     O
O     -0.26208126000000015 0.9201076699999998 1.07472637     O
O     -0.07989233000000054 1.07472637 0.73791874     O
O     -0.07989233000000019 0.7379187399999999 1.26724722     O
O     0.2672472200000001 0.7379187399999999 1.07472637     O
O     0.07472637000000003 0.7379187399999999 1.26724722     O
O     -0.2620812599999995 1.0747263699999998 0.92010767     O
O     -0.07989232999999984 1.2672472199999998 0.73791874     O
O     0.26724722 0.9201076699999998 1.07472637     O
O     0.07472637000000006 1.2672472199999998 0.92010767     O
O     0.07472636999999999 0.92010767 0.73791874     O
O     0.26724722 1.07472637 0.73791874     O
O     -0.26208126000000004 1.2672472199999998 1.07472637     O
O     -0.26208125999999965 0.9201076699999998 1.26724722     O
O     -0.07989232999999997 1.07472637 1.26724722     O
O     -0.07989233000000036 0.7379187399999999 1.07472637     O
O     0.26724721999999995 0.7379187399999999 0.92010767     O
O     0.9495820799999999 0.94958208 0.15125376     O
O     0.9495820800000001 0.9495820799999999 0.94958208     O
O     0.15125375999999985 0.9495820799999999 0.94958208     O
O     0.9495820799999999 0.15125375999999996 0.94958208     O
C     -0.09286293006481364 0.5425084065155898 1.2035663100242655     C
F     -0.12947411056962854 0.45890823433655753 1.2922015590150726     F
F     -0.014313597262119348 0.5484271898263666 1.2222016367800448     F
F     -0.18046236464545712 0.6391818038603698 1.2068411760953761     F
C     0.08331497150244484 0.46833298639722276 0.7842988627124783     C
F     0.1211419709852024 0.5512638377579789 0.6957864363802819     F
F     0.17049068447404467 0.37118086550996976 0.7824051653353582     F
F     0.005489904714687894 0.46272747385072605 0.7643127284132026     F
C     0.5425084065155881 0.9071370699351877 0.34678821352495715     C
F     0.45890823433655537 0.8705258894303731 0.37836431721799807     F
F     0.548427189826364 0.9856864027378829 0.2436847706557074     F
F     0.6391818038603673 0.8195376353545445 0.33443938468970974     F
C     0.4683329863972212 1.083314971502446 0.6640531793878535     C
F     0.5512638377579768 1.121141970985204 0.6318077548765363     F
F     0.3711808655099682 1.1704906844740457 0.6759232846806267     F
F     0.46272747385072427 1.005489904714689 0.7674698930213832     F
C     -0.09286293006481365 1.3467882135249578 0.5425084065155894     C
F     -0.1294741105696279 1.3783643172179987 0.45890823433655614     F
F     -0.01431359726211864 1.2436847706557081 0.5484271898263657     F
F     -0.1804623646454571 1.3344393846897105 0.639181803860368     F
C     0.08331497150244631 0.6640531793878535 1.4683329863972217     C
F     0.1211419709852041 0.6318077548765365 1.5512638377579775     F
F     0.1704906844740461 0.675923284680627 1.3711808655099686     F
F     0.0054899047146892924 0.7674698930213836 1.4627274738507248     F
C     -0.0928629300648135 1.2035663100242664 0.34678821352495837     C
F     -0.12947411056962743 1.2922015590150728 0.3783643172179988     F
F     -0.014313597262118666 1.2222016367800455 0.24368477065570815     F
F     -0.18046236464545734 1.2068411760953777 0.3344393846897118     F
C     0.0833149715024462 0.7842988627124782 0.6640531793878536     C
F     0.12114197098520413 0.6957864363802819 0.6318077548765361     F
F     0.17049068447404578 0.7824051653353586 0.6759232846806268     F
F     0.005489904714690038 0.764312728413202 0.7674698930213835     F
C     0.4683329863972223 0.7842988627124776 1.0833149715024462     C
F     0.5512638377579778 0.6957864363802813 1.1211419709852042     F
F     0.3711808655099691 0.7824051653353582 1.170490684474046     F
F     0.4627274738507257 0.7643127284132017 1.005489904714689     F
C     -0.45749159348441154 1.2035663100242664 0.9071370699351877     C
F     -0.5410917656634444 1.2922015590150722 0.8705258894303741     F
F     -0.4515728101736351 1.2222016367800443 0.9856864027378831     F
F     -0.3608181961396322 1.2068411760953777 0.8195376353545445     F
C     0.5425084065155892 0.34678821352495803 1.203566310024266     C
F     0.4589082343365565 0.37836431721799857 1.2922015590150724     F
F     0.5484271898263658 0.24368477065570723 1.2222016367800448     F
F     0.6391818038603687 0.33443938468971085 1.2068411760953768     F
C     0.4683329863972228 0.6640531793878531 0.7842988627124781     C
F     0.5512638377579779 0.6318077548765356 0.6957864363802815     F
F     0.3711808655099692 0.6759232846806267 0.7824051653353582     F
F     0.46272747385072566 0.7674698930213831 0.7643127284132014     F
