data_I
_chemical_name_common  'COOH/180/modified_COOH_180'
_cell_length_a 14.67267
_cell_length_b 14.67267
_cell_length_c 14.67267
_cell_angle_alpha 60.00000
_cell_angle_beta  60.00000
_cell_angle_gamma 60.00000
_space_group_name_H-M_alt      'P 1'


loop_
_space_group_symop_operation_xyz
  'x, y, z' 

loop_
_atom_site_label
_atom_site_fract_x
_atom_site_fract_y
_atom_site_fract_z
_atom_site_type_symbol
Zr    0.8802041699999997 0.11979583000000002 0.88020417    Zr
Zr    0.11979583000000003 0.8802041699999997 0.11979583    Zr
Zr    0.11979582999999996 0.11979583000000002 0.88020417    Zr
Zr    0.11979582999999991 0.88020417 0.88020417    Zr
Zr    0.8802041699999997 0.11979582999999998 0.11979583    Zr
Zr    0.8802041699999998 0.8802041699999997 0.11979583    Zr
H     0.9056041899999999 0.9056041900000001 0.90560419     H
H     0.9056041899999999 0.90560419 0.28318743     H
H     0.28318743 0.9056041900000001 0.90560419     H
H     0.9056041899999999 0.28318743 0.90560419     H
H     0.8600462599999992 -0.4196544799999998 1.1516419700000002     H
H     0.5803455200000002 -0.1399537399999997 1.4079662499999994     H
H     1.1516419699999998 0.4079662499999994 0.8600462600000001     H
H     1.4079662500000003 0.15164197000000026 0.5803455199999997     H
H     0.40796624999999964 -0.13995374000000005 1.15164197     H
H     0.5803455199999998 0.40796625000000003 1.1516419699999998     H
H     0.8600462599999998 0.4079662499999998 0.5803455200000002     H
H     0.8600462600000001 0.1516419700000006 0.4079662499999993     H
H     1.1516419700000005 0.58034552 0.40796625000000003     H
H     0.40796625000000014 0.5803455199999997 0.86004626     H
H     0.5803455199999997 0.1516419700000002 0.86004626     H
H     1.1516419699999998 -0.13995373999999985 0.5803455199999997     H
C     0.5881323499999999 0.006212759999999944 1.00621276     C
C     1.0062127600000002 -0.4118676499999999 1.39944213     C
C     1.3994421299999997 0.006212759999999944 1.00621276     C
C     1.00621276 0.39944213 0.58813235     C
C     1.0062127599999997 0.39944213 1.00621276     C
C     1.3994421299999997 -0.41186765 1.00621276     C
C     1.3994421300000002 0.006212759999999983 0.58813235     C
C     1.0062127599999997 0.006212759999999983 1.39944213     C
C     0.5881323499999996 0.006212759999999983 1.39944213     C
C     0.5881323499999996 0.39944213 1.00621276     C
C     1.0062127599999995 -0.41186765 1.00621276     C
C     1.0062127600000002 0.006212759999999983 0.58813235     C
C     0.5412707199999999 -0.07662659999999996 1.0881752399999998     C
C     0.9233734000000001 0.5412707199999998 0.4471806399999999     C
C     0.44718063999999996 0.0881752399999998 0.9233734     C
C     1.088175239999999 0.4471806400000001 0.5412707199999998     C
C     0.9233734000000001 0.4471806399999998 1.08817524     C
C     0.4471806400000001 0.5412707199999998 1.0881752399999998     C
C     1.4471806400000007 -0.07662659999999989 0.5412707199999998     C
C     1.0881752399999998 -0.07662659999999974 0.44718063999999963     C
C     0.5412707200000003 0.0881752400000001 1.4471806399999996     C
C     0.5412707199999999 0.44718063999999985 0.9233734     C
C     1.08817524 -0.45872928000000013 0.9233734000000001     C
C     0.9233734000000002 0.08817524000000035 0.5412707199999991     C
C     0.9233733999999995 -0.4587292799999998 1.08817524     C
C     0.5412707200000004 -0.07662660000000004 1.4471806399999998     C
C     1.08817524 0.44718063999999946 0.9233734000000001     C
C     1.4471806400000005 0.08817524000000014 0.5412707199999994     C
C     0.44718063999999974 -0.07662659999999996 1.0881752399999998     C
C     0.54127072 0.4471806400000001 1.0881752399999998     C
C     0.9233733999999997 0.44718063999999996 0.54127072     C
C     0.9233734000000001 0.08817524000000035 0.44718063999999935     C
C     1.0881752400000004 0.5412707199999999 0.4471806399999999     C
C     0.44718063999999985 0.54127072 0.9233734     C
C     0.54127072 0.0881752399999998 0.9233734     C
C     1.0881752399999998 -0.07662659999999968 0.5412707199999998     C
C     1.00404815 0.30072026999999996 0.6911834300000002     C
C     1.3007202699999998 0.004048149999999947 1.00404815     C
C     1.00404815 -0.30881657 1.30072027     C
C     0.6911834299999998 0.004048149999999947 1.00404815     C
C     1.30072027 0.004048149999999968 0.6911834300000002     C
C     1.00404815 0.004048149999999968 0.6911834300000002     C
C     1.00404815 0.30072027 1.00404815     C
C     0.69118343 0.30072027 1.00404815     C
C     1.00404815 -0.30881657 1.00404815     C
C     1.00404815 0.004048149999999962 1.30072027     C
C     0.69118343 0.004048149999999962 1.30072027     C
C     1.3007202699999998 -0.30881657 1.00404815     C
O     0.93269198 0.20192407999999998 0.9326919700000001     O
O     0.20192408999999992 0.93269197 0.9326919700000001     O
O     0.9326919800000001 0.93269197 0.20192408     O
O     0.93269198 0.93269197 0.9326919700000001     O
O     0.7327527800000001 0.07989232999999998 0.9252736300000001     O
O     1.0798923299999998 -0.2672472200000003 1.26208126     O
O     1.26208126 -0.07472637000000008 1.07989233     O
O     0.9252736300000001 0.26208126 0.7327527800000001     O
O     1.07989233 0.26208126 0.9252736300000001     O
O     1.2620812599999998 -0.2672472200000001 0.9252736300000001     O
O     1.26208126 0.07989232999999993 0.7327527800000001     O
O     0.9252736300000001 0.07989232999999993 1.26208126     O
O     0.7327527800000001 -0.07472637000000035 1.26208126     O
O     0.7327527799999997 0.2620812599999999 1.07989233     O
O     0.9252736300000001 -0.26724722000000006 1.07989233     O
O     1.0798923299999998 -0.07472637000000015 0.7327527800000001     O
O     1.0798923299999998 -0.2672472200000001 0.9252736300000001     O
O     0.7327527799999997 0.07989232999999993 1.26208126     O
O     0.9252736299999996 0.2620812599999999 1.07989233     O
O     1.2620812599999998 -0.07472637000000015 0.7327527800000001     O
O     1.26208126 0.07989232999999998 0.9252736300000001     O
O     0.7327527799999999 0.26208126 0.9252736300000001     O
O     1.0798923299999998 0.26208126 0.7327527800000001     O
O     1.07989233 -0.07472637000000035 1.26208126     O
O     0.9252736299999998 -0.2672472200000003 1.26208126     O
O     1.26208126 -0.26724722000000006 1.07989233     O
O     0.7327527800000001 -0.07472637000000008 1.07989233     O
O     0.9252736299999998 0.07989232999999993 0.7327527800000001     O
O     0.050417919999999894 0.8487462400000001 0.050417920000000005     O
O     0.8487462399999999 0.05041791999999999 0.050417920000000005     O
O     0.05041792000000005 0.05041791999999999 0.84874624     O
O     0.050417920000000005 0.05041791999999999 0.050417920000000005     O
C     0.5918825788849973 -0.16540050637303455 1.1760094473818739     C
O     0.5524041767791674 -0.24108115828819013 1.2508889964148804     O
O     0.6769880480321252 -0.16975036641366625 1.1803132628215764     O
H     0.5863718673060119 -0.3006609612231129 1.3098381288859369     H
C     0.39750848010616274 0.1760094473818734 0.8345994936269656     C
O     0.43778798509414196 0.25088899641488005 0.7589188417118097     O
O     0.31244905555996255 0.18031326282157614 0.8302496335863337     O
H     0.4044509650311635 0.3098381288859364 0.6993390387768873     H
C     0.8345994936269654 0.5918825788849976 0.39750848010616296     C
O     0.7589188417118101 0.5524041767791676 0.4377879850941419     O
O     0.8302496335863339 0.6769880480321264 0.31244905555996355     O
H     0.6993390387768875 0.5863718673060118 0.4044509650311639     H
C     1.1760094473818732 0.39750848010616235 0.5918825788849977     C
O     1.2508889964148802 0.43778798509414096 0.5524041767791682     O
O     1.1803132628215751 0.3124490555599625 0.6769880480321269     O
H     1.3098381288859364 0.40445096503116273 0.5863718673060122     H
C     0.8345994936269656 0.39750848010616235 1.1760094473818736     C
O     0.75891884171181 0.4377879850941412 1.2508889964148802     O
O     0.8302496335863334 0.3124490555599635 1.1803132628215756     O
H     0.6993390387768871 0.4044509650311637 1.3098381288859362     H
C     1.1760094473818743 -0.40811742111500326 0.8345994936269657     C
O     1.250888996414881 -0.4475958232208335 0.7589188417118106     O
O     1.1803132628215776 -0.32301195196787513 0.8302496335863342     O
H     1.3098381288859378 -0.4136281326939899 0.6993390387768881     H
C     0.3975084801061626 0.5918825788849975 1.1760094473818739     C
O     0.4377879850941414 0.5524041767791674 1.2508889964148804     O
O     0.31244905555996244 0.6769880480321262 1.1803132628215762     O
H     0.40445096503116323 0.5863718673060119 1.3098381288859369     H
C     0.5918825788849978 0.39750848010616274 0.8345994936269656     C
O     0.5524041767791678 0.4377879850941415 0.75891884171181     O
O     0.6769880480321268 0.31244905555996316 0.8302496335863341     O
H     0.5863718673060122 0.40445096503116323 0.6993390387768875     H
C     1.3975084801061632 -0.16540050637303425 0.5918825788849975     C
O     1.437787985094142 -0.24108115828818968 0.5524041767791673     O
O     1.3124490555599635 -0.1697503664136654 0.6769880480321258     O
H     1.404450965031164 -0.300660961223112 0.5863718673060107     H
C     0.5918825788849975 0.17600944738187418 1.3975084801061624     C
O     0.5524041767791676 0.25088899641488116 1.437787985094141     O
O     0.6769880480321269 0.18031326282157625 1.3124490555599633     O
H     0.5863718673060119 0.30983812888593726 1.404450965031163     H
C     1.1760094473818736 -0.16540050637303444 0.3975084801061625     C
O     1.2508889964148808 -0.2410811582881899 0.43778798509414163     O
O     1.180313262821576 -0.169750366413666 0.3124490555599634     O
H     1.3098381288859366 -0.30066096122311237 0.4044509650311636     H
C     0.8345994936269663 0.1760094473818744 0.5918825788849968     C
O     0.7589188417118107 0.2508889964148813 0.5524041767791665     O
O     0.8302496335863342 0.18031326282157706 0.6769880480321254     O
H     0.6993390387768879 0.30983812888593765 0.586371867306011     H
