data_I
_chemical_name_common  'NO2/150/modified_NO2_150'
_cell_length_a 14.67267
_cell_length_b 14.67267
_cell_length_c 14.67267
_cell_angle_alpha 60.00000
_cell_angle_beta  60.00000
_cell_angle_gamma 60.00000
_space_group_name_H-M_alt      'P 1'


loop_
_space_group_symop_operation_xyz
  'x, y, z' 

loop_
_atom_site_label
_atom_site_fract_x
_atom_site_fract_y
_atom_site_fract_z
_atom_site_type_symbol
Zr    0.11979582999999991 0.88020417 0.88020417    Zr
Zr    0.8802041699999997 0.11979582999999998 0.11979583    Zr
Zr    0.11979582999999996 0.11979583000000002 0.88020417    Zr
Zr    0.11979583000000003 0.8802041699999997 0.11979583    Zr
Zr    0.8802041699999997 0.11979583000000002 0.88020417    Zr
Zr    0.8802041699999998 0.8802041699999997 0.11979583    Zr
H     0.09439580999999993 0.71681257 0.09439581     H
H     0.7168125700000001 0.09439580999999998 0.09439581     H
H     0.09439580999999996 0.09439580999999998 0.09439581     H
H     0.09439580999999994 0.09439581 0.71681257     H
H     -0.08035015295647492 0.5405358130885453 1.368156543088545     H
H     -0.35636953495850165 0.8160338523318708 1.0690844875851324     H
H     0.06908448758513158 1.4712511950414984 0.6436304650414978     H
H     0.3681565430885455 1.171657796779384 0.9196498470435251     H
H     -0.08035015295647538 0.3681565430885457 1.1716577967793842     H
H     -0.08035015295647471 1.1716577967793842 0.5405358130885453     H
H     0.3681565430885444 0.9196498470435253 0.540535813088545     H
H     0.6436304650414987 0.4712511950414983 0.8160338523318708     H
H     0.6436304650414975 1.0690844875851322 0.4712511950414981     H
H     0.06908448758513137 0.8160338523318716 0.4712511950414987     H
H     0.06908448758513204 0.6436304650414982 0.816033852331871     H
H     0.3681565430885451 0.5405358130885455 1.1716577967793842     H
C     -0.006212760000000258 0.60055787 0.9937872400000001     C
C     -0.3994421300000001 0.9937872399999998 1.4118676500000003     C
C     -0.0062127600000004245 1.4118676500000003 0.9937872400000001     C
C     0.41186764999999936 0.99378724 0.60055787     C
C     -0.006212760000000525 1.41186765 0.60055787     C
C     -0.0062127600000000715 0.9937872399999998 1.4118676500000003     C
C     0.4118676499999999 0.99378724 0.9937872400000001     C
C     -0.39944212999999973 1.4118676500000003 0.9937872400000001     C
C     -0.39944213000000023 0.99378724 0.9937872400000001     C
C     -0.006212759999999998 0.99378724 0.60055787     C
C     -0.006212760000000127 0.6005578699999998 1.4118676500000003     C
C     0.4118676499999998 0.60055787 0.9937872400000001     C
C     -0.04775120128602617 0.5237449751679598 1.0943513309501063     C
C     0.5237449751679589 0.9522487987139744 0.4296548951679595     C
C     0.03670512943638228 0.4879211444759699 0.8933625016116776     C
C     0.48792114447596874 1.0367051294363827 0.58201122447597     C
C     -0.04775120128602656 1.4296548951679595 0.5237449751679597     C
C     -0.047751201286025766 1.0943513309501065 0.4296548951679598     C
C     0.4879211444759698 0.8933625016116773 1.0367051294363832     C
C     0.5237449751679597 0.4296548951679595 1.0943513309501063     C
C     -0.47625502483204074 1.0943513309501058 0.9522487987139753     C
C     0.03670512943638284 0.8933625016116777 0.5820112244759699     C
C     0.036705129436382634 0.5820112244759704 1.4879211444759695     C
C     0.48792114447596985 0.5820112244759696 0.8933625016116777     C
C     -0.047751201286025724 0.5237449751679599 1.4296548951679595     C
C     -0.41798877552403035 0.8933625016116773 1.0367051294363832     C
C     0.03670512943638145 1.48792114447597 0.5820112244759696     C
C     0.4296548951679595 1.0943513309501058 0.9522487987139753     C
C     -0.04775120128602595 0.4296548951679598 1.0943513309501063     C
C     -0.04775120128602572 1.0943513309501063 0.5237449751679599     C
C     0.4296548951679586 0.9522487987139745 0.5237449751679593     C
C     0.5820112244759699 0.4879211444759696 0.8933625016116777     C
C     0.5820112244759691 1.036705129436383 0.4879211444759693     C
C     0.03670512943638211 0.8933625016116777 0.48792114447597035     C
C     0.036705129436382836 0.5820112244759695 0.8933625016116774     C
C     0.4296548951679595 0.5237449751679594 1.0943513309501063     C
C     0.30881657000000007 0.9959518499999999 0.6992797300000001     C
C     -0.004048150000000316 1.3088165699999998 0.99595185     C
C     -0.30072027000000007 0.9959518499999999 1.30881657     C
C     -0.004048150000000316 0.6992797299999999 0.99595185     C
C     0.3088165700000002 0.9959518499999999 0.99595185     C
C     0.30881657000000007 0.6992797299999999 0.99595185     C
C     -0.004048150000000554 1.3088165699999998 0.6992797300000001     C
C     -0.00404815000000011 0.9959518499999999 0.6992797300000001     C
C     -0.00404815000000011 0.6992797299999999 1.30881657     C
C     -0.3007202700000002 1.3088165699999998 0.99595185     C
C     -0.3007202700000001 0.9959518499999999 0.99595185     C
C     -0.00404815000000011 0.9959518499999999 1.30881657     C
O     0.06730802999999999 0.06730802999999999 0.79807592     O
O     0.06730802999999999 0.06730802999999999 0.06730803     O
O     0.79807592 0.06730802999999999 0.06730803     O
O     0.06730802999999999 0.79807592 0.06730803     O
O     0.07472636999999994 0.7379187399999999 0.92010767     O
O     -0.26208126000000015 1.07472637 1.26724722     O
O     -0.07989232999999991 1.2672472199999998 1.07472637     O
O     0.26724722 0.92010767 0.73791874     O
O     0.07472637000000004 1.2672472199999998 0.73791874     O
O     0.07472637000000014 0.9201076699999998 1.26724722     O
O     0.2672472200000002 1.0747263699999998 0.92010767     O
O     -0.2620812599999995 1.2672472199999998 0.92010767     O
O     -0.26208126000000015 0.9201076699999998 1.07472637     O
O     -0.07989233000000054 1.07472637 0.73791874     O
O     -0.07989233000000019 0.7379187399999999 1.26724722     O
O     0.2672472200000001 0.7379187399999999 1.07472637     O
O     0.07472637000000003 0.7379187399999999 1.26724722     O
O     -0.2620812599999995 1.0747263699999998 0.92010767     O
O     -0.07989232999999984 1.2672472199999998 0.73791874     O
O     0.26724722 0.9201076699999998 1.07472637     O
O     0.07472637000000006 1.2672472199999998 0.92010767     O
O     0.07472636999999999 0.92010767 0.73791874     O
O     0.26724722 1.07472637 0.73791874     O
O     -0.26208126000000004 1.2672472199999998 1.07472637     O
O     -0.26208125999999965 0.9201076699999998 1.26724722     O
O     -0.07989232999999997 1.07472637 1.26724722     O
O     -0.07989233000000036 0.7379187399999999 1.07472637     O
O     0.26724721999999995 0.7379187399999999 0.92010767     O
O     0.9495820799999999 0.94958208 0.15125376     O
O     0.9495820800000001 0.9495820799999999 0.94958208     O
O     0.15125375999999985 0.9495820799999999 0.94958208     O
O     0.9495820799999999 0.15125375999999996 0.94958208     O
N     -0.09226542372337332 0.5422598842460853 1.2021197540100386     N
O     -0.13021424800286838 0.47541850820887427 1.2939934232701467     O
O     -0.09444658984899569 0.625792625042111 1.2074003322369382     O
N     0.08269762260090796 0.4685924321995901 0.7857434142210767     N
O     0.12190668760778335 0.5347400327898161 0.6939970551275589     O
O     0.08495122297019535 0.3850198156094529 0.7804701533387349     O
N     0.542259884246083 0.9077345762766286 0.3478857854672485     N
O     0.47541850820887166 0.8697857519971336 0.360802316523847     O
O     0.625792625042108 0.9055534101510065 0.2612536325699454     O
N     0.4685924321995891 1.0826976226009086 0.6629665309784243     N
O     0.5347400327898144 1.1219066876077848 0.649356224474841     O
O     0.3850198156094511 1.0849512229701963 0.7495588080816158     O
N     -0.0922654237233728 1.3478857854672495 0.5422598842460842     N
O     -0.13021424800286815 1.3608023165238472 0.4754185082088734     O
O     -0.0944465898489953 1.2612536325699468 0.6257926250421098     O
N     0.08269762260090857 0.6629665309784251 1.4685924321995893     N
O     0.1219066876077851 0.6493562244748413 1.5347400327898142     O
O     0.0849512229701967 0.7495588080816161 1.385019815609452     O
N     -0.0922654237233728 1.202119754010039 0.34788578546724985     N
O     -0.13021424800286735 1.2939934232701473 0.36080231652384787     O
O     -0.09444658984899444 1.2074003322369389 0.26125363256994627     O
N     0.08269762260090868 0.7857434142210771 0.6629665309784246     N
O     0.12190668760778503 0.6939970551275592 0.6493562244748406     O
O     0.08495122297019775 0.7804701533387346 0.749558808081615     O
N     0.4685924321995899 0.7857434142210765 1.0826976226009086     N
O     0.534740032789815 0.6939970551275587 1.121906687607785     O
O     0.385019815609452 0.7804701533387349 1.0849512229701967     O
N     -0.45774011575391665 1.2021197540100386 0.9077345762766288     N
O     -0.5245814917911278 1.2939934232701464 0.869785751997134     O
O     -0.3742073749578917 1.207400332236938 0.9055534101510067     O
N     0.5422598842460841 0.34788578546724935 1.2021197540100388     N
O     0.47541850820887305 0.3608023165238477 1.2939934232701467     O
O     0.6257926250421093 0.26125363256994627 1.2074003322369387     O
N     0.46859243219958996 0.6629665309784245 0.7857434142210766     N
O     0.5347400327898157 0.6493562244748398 0.6939970551275594     O
O     0.385019815609453 0.7495588080816157 0.7804701533387344     O
