data_I
_chemical_name_common  'CN/30/modified_CN_30'
_cell_length_a 14.67267
_cell_length_b 14.67267
_cell_length_c 14.67267
_cell_angle_alpha 60.00000
_cell_angle_beta  60.00000
_cell_angle_gamma 60.00000
_space_group_name_H-M_alt      'P 1'


loop_
_space_group_symop_operation_xyz
  'x, y, z' 

loop_
_atom_site_label
_atom_site_fract_x
_atom_site_fract_y
_atom_site_fract_z
_atom_site_type_symbol
Zr    0.11979582999999991 0.88020417 0.88020417    Zr
Zr    0.8802041699999997 0.11979582999999998 0.11979583    Zr
Zr    0.11979582999999996 0.11979583000000002 0.88020417    Zr
Zr    0.11979583000000003 0.8802041699999997 0.11979583    Zr
Zr    0.8802041699999997 0.11979583000000002 0.88020417    Zr
Zr    0.8802041699999998 0.8802041699999997 0.11979583    Zr
H     0.09439580999999993 0.71681257 0.09439581     H
H     0.7168125700000001 0.09439580999999998 0.09439581     H
H     0.09439580999999996 0.09439580999999998 0.09439581     H
H     0.09439580999999994 0.09439581 0.71681257     H
H     0.06792463295647477 0.6442689769114545 1.4718897069114547     H
H     -0.35573102308854554 1.067924632956475 0.8159166832206158     H
H     -0.0815100075851322 1.3687950549585015 0.541174324958502     H
H     0.36879505495850184 0.9184899924148676 1.1715406276681288     H
H     0.1715406276681289 0.36879505495850146 0.918489992414868     H
H     0.17154062766812878 0.9184899924148673 0.5411743249585019     H
H     0.36879505495850157 1.171540627668129 0.5411743249585016     H
H     0.5411743249585018 0.36879505495850157 1.171540627668129     H
H     0.6442689769114541 0.8159166832206161 0.47188970691145443     H
H     -0.184083316779384 1.0679246329564749 0.4718897069114549     H
H     -0.18408331677938441 0.6442689769114546 1.0679246329564749     H
H     0.4718897069114546 0.6442689769114547 0.8159166832206157     H
C     -0.006212760000000258 0.60055787 0.9937872400000001     C
C     -0.3994421300000001 0.9937872399999998 1.4118676500000003     C
C     -0.0062127600000004245 1.4118676500000003 0.9937872400000001     C
C     0.41186764999999936 0.99378724 0.60055787     C
C     -0.006212760000000525 1.41186765 0.60055787     C
C     -0.0062127600000000715 0.9937872399999998 1.4118676500000003     C
C     0.4118676499999999 0.99378724 0.9937872400000001     C
C     -0.39944212999999973 1.4118676500000003 0.9937872400000001     C
C     -0.39944213000000023 0.99378724 0.9937872400000001     C
C     -0.006212759999999998 0.99378724 0.60055787     C
C     -0.006212760000000127 0.6005578699999998 1.4118676500000003     C
C     0.4118676499999998 0.60055787 0.9937872400000001     C
C     0.09421197838832261 0.52450437552403 0.9508693505636174     C
C     0.5245043755240301 1.0942119783883226 0.43041429552403004     C
C     -0.10677685095010596 0.48868054483204004 1.0353256812860254     C
C     0.4886805448320397 0.8932231490498939 0.5827706248320402     C
C     0.03532568128602543 1.48868054483204 0.5827706248320407     C
C     0.09421197838832247 0.950869350563617 0.4304142955240305     C
C     0.4886805448320404 1.0353256812860254 0.893223149049894     C
C     0.5827706248320405 0.48868054483204026 0.8932231490498937     C
C     -0.47549562447596994 0.9508693505636167 1.0942119783883228     C
C     -0.1067768509501063 1.035325681286025 0.5827706248320407     C
C     -0.04913064943638277 0.5245043755240303 1.4304142955240298     C
C     0.4304142955240306 0.5245043755240298 1.0942119783883224     C
C     0.03532568128602544 0.5827706248320405 1.48868054483204     C
C     -0.41722937516795977 1.0353256812860254 0.893223149049894     C
C     -0.04913064943638266 1.4304142955240298 0.5245043755240306     C
C     0.4304142955240303 0.9508693505636167 1.0942119783883228     C
C     0.0942119783883226 0.43041429552403 0.9508693505636173     C
C     0.09421197838832242 0.950869350563617 0.5245043755240305     C
C     0.43041429552403027 1.0942119783883224 0.52450437552403     C
C     0.5245043755240302 0.43041429552403015 1.0942119783883224     C
C     0.5827706248320403 0.8932231490498941 0.4886805448320402     C
C     -0.10677685095010611 1.0353256812860256 0.48868054483204065     C
C     -0.10677685095010629 0.5827706248320401 1.0353256812860252     C
C     0.4886805448320405 0.5827706248320402 0.8932231490498937     C
C     0.30881657000000007 0.9959518499999999 0.6992797300000001     C
C     -0.004048150000000316 1.3088165699999998 0.99595185     C
C     -0.30072027000000007 0.9959518499999999 1.30881657     C
C     -0.004048150000000316 0.6992797299999999 0.99595185     C
C     0.3088165700000002 0.9959518499999999 0.99595185     C
C     0.30881657000000007 0.6992797299999999 0.99595185     C
C     -0.004048150000000554 1.3088165699999998 0.6992797300000001     C
C     -0.00404815000000011 0.9959518499999999 0.6992797300000001     C
C     -0.00404815000000011 0.6992797299999999 1.30881657     C
C     -0.3007202700000002 1.3088165699999998 0.99595185     C
C     -0.3007202700000001 0.9959518499999999 0.99595185     C
C     -0.00404815000000011 0.9959518499999999 1.30881657     C
O     0.06730802999999999 0.06730802999999999 0.79807592     O
O     0.06730802999999999 0.06730802999999999 0.06730803     O
O     0.79807592 0.06730802999999999 0.06730803     O
O     0.06730802999999999 0.79807592 0.06730803     O
O     0.07472636999999994 0.7379187399999999 0.92010767     O
O     -0.26208126000000015 1.07472637 1.26724722     O
O     -0.07989232999999991 1.2672472199999998 1.07472637     O
O     0.26724722 0.92010767 0.73791874     O
O     0.07472637000000004 1.2672472199999998 0.73791874     O
O     0.07472637000000014 0.9201076699999998 1.26724722     O
O     0.2672472200000002 1.0747263699999998 0.92010767     O
O     -0.2620812599999995 1.2672472199999998 0.92010767     O
O     -0.26208126000000015 0.9201076699999998 1.07472637     O
O     -0.07989233000000054 1.07472637 0.73791874     O
O     -0.07989233000000019 0.7379187399999999 1.26724722     O
O     0.2672472200000001 0.7379187399999999 1.07472637     O
O     0.07472637000000003 0.7379187399999999 1.26724722     O
O     -0.2620812599999995 1.0747263699999998 0.92010767     O
O     -0.07989232999999984 1.2672472199999998 0.73791874     O
O     0.26724722 0.9201076699999998 1.07472637     O
O     0.07472637000000006 1.2672472199999998 0.92010767     O
O     0.07472636999999999 0.92010767 0.73791874     O
O     0.26724722 1.07472637 0.73791874     O
O     -0.26208126000000004 1.2672472199999998 1.07472637     O
O     -0.26208125999999965 0.9201076699999998 1.26724722     O
O     -0.07989232999999997 1.07472637 1.26724722     O
O     -0.07989233000000036 0.7379187399999999 1.07472637     O
O     0.26724721999999995 0.7379187399999999 0.92010767     O
O     0.9495820799999999 0.94958208 0.15125376     O
O     0.9495820800000001 0.9495820799999999 0.94958208     O
O     0.15125375999999985 0.9495820799999999 0.94958208     O
O     0.9495820799999999 0.15125375999999996 0.94958208     O
C     0.19821968700742637 0.5431844732944912 0.9064202296529357     C
N     0.2827259502604484 0.5583620527329909 0.8703053189130064     N
C     -0.21092888397447024 0.470786941427678 1.0783461378697703     C
N     -0.29555241080676614 0.45624838866163403 1.1133002588440626     N
C     0.5431844732944915 1.1982196870074269 0.3521756100451473     C
N     0.5583620527329912 1.2827259502604484 0.28860667809355534     N
C     0.4707869414276781 0.7890711160255296 0.6617958046770224     C
N     0.4562483886616342 0.704447589193234 0.7260037633010703     N
C     0.07834613786976997 1.4707869414276786 0.6617958046770226     C
N     0.11330025884406221 1.4562483886616342 0.7260037633010701     N
C     -0.09357977034706627 0.5431844732944913 1.352175610045148     C
N     -0.12969468108699578 0.5583620527329913 1.2886066780935554     N
C     0.1982196870074266 0.9064202296529348 0.35217561004514786     C
N     0.28272595026044883 0.8703053189130054 0.2886066780935557     N
C     -0.21092888397447093 1.0783461378697692 0.6617958046770227     C
N     -0.2955524108067669 1.113300258844061 0.7260037633010705     N
C     0.4707869414276784 1.0783461378697692 0.7890711160255298     C
N     0.45624838866163453 1.1133002588440615 0.7044475891932337     N
C     -0.45681552670550896 0.906420229652934 1.1982196870074266     C
N     -0.44163794726700933 0.8703053189130044 1.2827259502604487     N
C     0.6617958046770223 0.47078694142767824 0.7890711160255295     C
N     0.7260037633010693 0.4562483886616344 0.7044475891932334     N
C     0.352175610045148 0.5431844732944912 1.1982196870074269     C
N     0.2886066780935564 0.5583620527329907 1.2827259502604487     N
