data_I
_chemical_name_common  'CF3/0/modified_CF3_0'
_cell_length_a 14.67267
_cell_length_b 14.67267
_cell_length_c 14.67267
_cell_angle_alpha 60.00000
_cell_angle_beta  60.00000
_cell_angle_gamma 60.00000
_space_group_name_H-M_alt      'P 1'


loop_
_space_group_symop_operation_xyz
  'x, y, z' 

loop_
_atom_site_label
_atom_site_fract_x
_atom_site_fract_y
_atom_site_fract_z
_atom_site_type_symbol
Zr    0.11979582999999991 0.88020417 0.88020417    Zr
Zr    0.8802041699999997 0.11979582999999998 0.11979583    Zr
Zr    0.11979582999999996 0.11979583000000002 0.88020417    Zr
Zr    0.11979583000000003 0.8802041699999997 0.11979583    Zr
Zr    0.8802041699999997 0.11979583000000002 0.88020417    Zr
Zr    0.8802041699999998 0.8802041699999997 0.11979583    Zr
H     0.09439580999999993 0.71681257 0.09439581     H
H     0.7168125700000001 0.09439580999999998 0.09439581     H
H     0.09439580999999996 0.09439580999999998 0.09439581     H
H     0.09439580999999994 0.09439581 0.71681257     H
H     0.13921644999999983 0.5927710400000004 1.4203917699999997     H
H     -0.4072289600000001 1.13921645 0.84762074     H
H     -0.1523792599999998 1.4203917700000002 0.59277104     H
H     0.42039177000000005 0.8476207399999999 1.1392164500000002     H
H     0.1392164499999999 0.42039177 0.84762074     H
H     0.13921644999999955 0.8476207400000001 0.5927710400000002     H
H     0.42039177000000016 1.13921645 0.5927710400000001     H
H     0.5927710399999998 0.42039177000000005 1.1392164500000002     H
H     0.5927710399999998 0.84762074 0.4203917700000001     H
H     -0.15237925999999982 1.1392164500000002 0.42039177000000016     H
H     -0.15237926000000046 0.5927710399999999 1.1392164500000002     H
H     0.4203917699999998 0.5927710400000001 0.84762074     H
C     -0.006212760000000258 0.60055787 0.9937872400000001     C
C     -0.3994421300000001 0.9937872399999998 1.4118676500000003     C
C     -0.0062127600000004245 1.4118676500000003 0.9937872400000001     C
C     0.41186764999999936 0.99378724 0.60055787     C
C     -0.006212760000000525 1.41186765 0.60055787     C
C     -0.0062127600000000715 0.9937872399999998 1.4118676500000003     C
C     0.4118676499999999 0.99378724 0.9937872400000001     C
C     -0.39944212999999973 1.4118676500000003 0.9937872400000001     C
C     -0.39944213000000023 0.99378724 0.9937872400000001     C
C     -0.006212759999999998 0.99378724 0.60055787     C
C     -0.006212760000000127 0.6005578699999998 1.4118676500000003     C
C     0.4118676499999998 0.60055787 0.9937872400000001     C
C     0.07574972000000003 0.55369624 0.91094788     C
C     0.5536962399999997 1.07574972 0.45960616000000004     C
C     -0.08905212 0.45960615999999993 1.07574972     C
C     0.4596061599999995 0.9109478799999999 0.5536962400000001     C
C     0.07574972000000015 1.4596061599999997 0.55369624     C
C     0.07574971999999991 0.9109478800000002 0.45960616000000015     C
C     0.45960616000000004 1.07574972 0.91094788     C
C     0.55369624 0.45960615999999993 0.91094788     C
C     -0.44630376 0.9109478799999997 1.07574972     C
C     -0.0890521200000003 1.07574972 0.5536962400000002     C
C     -0.08905212000000001 0.5536962400000002 1.4596061599999994     C
C     0.45960616000000026 0.55369624 1.07574972     C
C     0.07574972000000019 0.5536962400000002 1.4596061599999994     C
C     -0.4463037600000001 1.07574972 0.91094788     C
C     -0.08905211999999964 1.4596061599999997 0.55369624     C
C     0.45960616000000026 0.9109478799999997 1.07574972     C
C     0.07574971999999998 0.4596061599999998 0.91094788     C
C     0.07574971999999983 0.9109478800000002 0.5536962400000002     C
C     0.45960616000000004 1.0757497199999997 0.5536962400000001     C
C     0.55369624 0.45960616000000004 1.07574972     C
C     0.5536962400000001 0.9109478799999999 0.45960616000000004     C
C     -0.08905211999999979 1.0757497200000001 0.45960616000000015     C
C     -0.08905212000000028 0.5536962399999998 1.07574972     C
C     0.45960615999999993 0.5536962400000001 0.91094788     C
C     0.30881657000000007 0.9959518499999999 0.6992797300000001     C
C     -0.004048150000000316 1.3088165699999998 0.99595185     C
C     -0.30072027000000007 0.9959518499999999 1.30881657     C
C     -0.004048150000000316 0.6992797299999999 0.99595185     C
C     0.3088165700000002 0.9959518499999999 0.99595185     C
C     0.30881657000000007 0.6992797299999999 0.99595185     C
C     -0.004048150000000554 1.3088165699999998 0.6992797300000001     C
C     -0.00404815000000011 0.9959518499999999 0.6992797300000001     C
C     -0.00404815000000011 0.6992797299999999 1.30881657     C
C     -0.3007202700000002 1.3088165699999998 0.99595185     C
C     -0.3007202700000001 0.9959518499999999 0.99595185     C
C     -0.00404815000000011 0.9959518499999999 1.30881657     C
O     0.06730802999999999 0.06730802999999999 0.79807592     O
O     0.06730802999999999 0.06730802999999999 0.06730803     O
O     0.79807592 0.06730802999999999 0.06730803     O
O     0.06730802999999999 0.79807592 0.06730803     O
O     0.07472636999999994 0.7379187399999999 0.92010767     O
O     -0.26208126000000015 1.07472637 1.26724722     O
O     -0.07989232999999991 1.2672472199999998 1.07472637     O
O     0.26724722 0.92010767 0.73791874     O
O     0.07472637000000004 1.2672472199999998 0.73791874     O
O     0.07472637000000014 0.9201076699999998 1.26724722     O
O     0.2672472200000002 1.0747263699999998 0.92010767     O
O     -0.2620812599999995 1.2672472199999998 0.92010767     O
O     -0.26208126000000015 0.9201076699999998 1.07472637     O
O     -0.07989233000000054 1.07472637 0.73791874     O
O     -0.07989233000000019 0.7379187399999999 1.26724722     O
O     0.2672472200000001 0.7379187399999999 1.07472637     O
O     0.07472637000000003 0.7379187399999999 1.26724722     O
O     -0.2620812599999995 1.0747263699999998 0.92010767     O
O     -0.07989232999999984 1.2672472199999998 0.73791874     O
O     0.26724722 0.9201076699999998 1.07472637     O
O     0.07472637000000006 1.2672472199999998 0.92010767     O
O     0.07472636999999999 0.92010767 0.73791874     O
O     0.26724722 1.07472637 0.73791874     O
O     -0.26208126000000004 1.2672472199999998 1.07472637     O
O     -0.26208125999999965 0.9201076699999998 1.26724722     O
O     -0.07989232999999997 1.07472637 1.26724722     O
O     -0.07989233000000036 0.7379187399999999 1.07472637     O
O     0.26724721999999995 0.7379187399999999 0.92010767     O
O     0.9495820799999999 0.94958208 0.15125376     O
O     0.9495820800000001 0.9495820799999999 0.94958208     O
O     0.15125375999999985 0.9495820799999999 0.94958208     O
O     0.9495820799999999 0.15125375999999996 0.94958208     O
C     0.16476291003129503 0.6049874526955344 0.8209823775682676     C
F     0.2370030581206209 0.5477857473141041 0.7479693643697299     F
F     0.12050575828343864 0.7121721577943945 0.7598923452984312     F
F     0.22687746718503524 0.6069204979827293 0.8640239560201645     F
C     -0.1790176224317326 0.40926725970490285 1.1647629100312953     C
F     -0.25203063563027006 0.4672418301955457 1.2370030581206204     F
F     -0.24010765470156875 0.40742973862373644 1.120505758283438     F
F     -0.1359760439798363 0.3021780788120716 1.2268774671850355     F
C     0.6049874526955347 1.1647629100312948 0.40926725970490324     C
F     0.5477857473141043 1.23700305812062 0.46724183019554616     F
F     0.7121721577943945 1.1205057582834372 0.4074297386237372     F
F     0.6069204979827301 1.2268774671850353 0.30217807881207204     F
C     0.4092672597049031 0.8209823775682671 0.6049874526955348     C
F     0.46724183019554594 0.747969364369729 0.5477857473141049     F
F     0.4074297386237367 0.759892345298431 0.7121721577943951     F
F     0.30217807881207154 0.8640239560201631 0.60692049798273     F
C     0.1647629100312951 1.4092672597049027 0.6049874526955342     C
F     0.2370030581206202 1.467241830195546 0.5477857473141041     F
F     0.12050575828343749 1.4074297386237364 0.7121721577943941     F
F     0.22687746718503582 1.302178078812072 0.6069204979827293     F
C     -0.17901762243173325 0.6049874526955348 1.4092672597049034     C
F     -0.2520306356302711 0.5477857473141052 1.467241830195546     F
F     -0.2401076547015695 0.7121721577943952 1.4074297386237367     F
F     -0.13597604397983715 0.6069204979827302 1.3021780788120718     F
C     0.16476291003129537 0.8209823775682672 0.4092672597049034     C
F     0.23700305812062009 0.7479693643697296 0.46724183019554655     F
F     0.12050575828343815 0.759892345298431 0.4074297386237369     F
F     0.22687746718503607 0.8640239560201635 0.3021780788120722     F
C     -0.17901762243173355 1.164762910031295 0.6049874526955349     C
F     -0.25203063563027145 1.23700305812062 0.5477857473141048     F
F     -0.2401076547015691 1.120505758283437 0.712172157794395     F
F     -0.13597604397983812 1.226877467185035 0.6069204979827308     F
C     0.40926725970490324 1.164762910031295 0.8209823775682671     C
F     0.467241830195546 1.2370030581206202 0.7479693643697292     F
F     0.407429738623737 1.1205057582834372 0.7598923452984312     F
F     0.30217807881207176 1.2268774671850358 0.8640239560201631     F
C     -0.3950125473044654 0.8209823775682666 1.1647629100312948     C
F     -0.45221425268589555 0.7479693643697289 1.2370030581206195     F
F     -0.28782784220560526 0.7598923452984307 1.120505758283437     F
F     -0.39307950201727015 0.8640239560201622 1.2268774671850355     F
C     0.604987452695534 0.40926725970490324 0.8209823775682673     C
F     0.5477857473141037 0.4672418301955462 0.7479693643697296     F
F     0.7121721577943945 0.40742973862373666 0.7598923452984309     F
F     0.6069204979827292 0.3021780788120717 0.8640239560201636     F
C     0.40926725970490385 0.6049874526955342 1.164762910031295     C
F     0.4672418301955472 0.5477857473141043 1.2370030581206197     F
F     0.4074297386237372 0.7121721577943946 1.1205057582834375     F
F     0.3021780788120722 0.6069204979827297 1.226877467185036     F
