data_I
_chemical_name_common  'NH2/90/modified_NH2_90'
_cell_length_a 14.67267
_cell_length_b 14.67267
_cell_length_c 14.67267
_cell_angle_alpha 60.00000
_cell_angle_beta  60.00000
_cell_angle_gamma 60.00000
_space_group_name_H-M_alt      'P 1'


loop_
_space_group_symop_operation_xyz
  'x, y, z' 

loop_
_atom_site_label
_atom_site_fract_x
_atom_site_fract_y
_atom_site_fract_z
_atom_site_type_symbol
Zr    0.11979582999999991 0.88020417 0.88020417    Zr
Zr    0.8802041699999997 0.11979582999999998 0.11979583    Zr
Zr    0.11979582999999996 0.11979583000000002 0.88020417    Zr
Zr    0.11979583000000003 0.8802041699999997 0.11979583    Zr
Zr    0.8802041699999997 0.11979583000000002 0.88020417    Zr
Zr    0.8802041699999998 0.8802041699999997 0.11979583    Zr
H     0.09439580999999993 0.71681257 0.09439581     H
H     0.7168125700000001 0.09439580999999998 0.09439581     H
H     0.09439580999999996 0.09439580999999998 0.09439581     H
H     0.09439580999999994 0.09439581 0.71681257     H
H     0.09740323471165434 0.48930774304704694 1.3169284730470465     H
H     -0.30450295304704705 0.8901712452883458 0.8912139308057482     H
H     -0.1087860691942521 1.523117776952953 0.6954970469529523     H
H     0.316928473047047 1.0963605491942519 1.0974032347116542     H
H     0.09740323471165382 0.3169284730470469 1.0963605491942523     H
H     0.09740323471165394 1.0963605491942519 0.48930774304704716     H
H     0.3169284730470466 1.0974032347116545 0.4893077430470468     H
H     0.6954970469529532 0.5231177769529527 0.890171245288346     H
H     0.6954970469529524 0.8912139308057483 0.5231177769529527     H
H     -0.10878606919425242 0.8901712452883466 0.5231177769529531     H
H     -0.10878606919425203 0.695497046952953 0.8901712452883457     H
H     0.3169284730470466 0.4893077430470469 1.0963605491942523     H
C     -0.006212760000000258 0.60055787 0.9937872400000001     C
C     -0.3994421300000001 0.9937872399999998 1.4118676500000003     C
C     -0.0062127600000004245 1.4118676500000003 0.9937872400000001     C
C     0.41186764999999936 0.99378724 0.60055787     C
C     -0.006212760000000525 1.41186765 0.60055787     C
C     -0.0062127600000000715 0.9937872399999998 1.4118676500000003     C
C     0.4118676499999999 0.99378724 0.9937872400000001     C
C     -0.39944212999999973 1.4118676500000003 0.9937872400000001     C
C     -0.39944213000000023 0.99378724 0.9937872400000001     C
C     -0.006212759999999998 0.99378724 0.60055787     C
C     -0.006212760000000127 0.6005578699999998 1.4118676500000003     C
C     0.4118676499999998 0.60055787 0.9937872400000001     C
C     0.052673537102296754 0.4949915506919897 1.0514334415137236     C
C     0.49499155069198925 1.0526735371022973 0.4009014706919895     C
C     -0.06385896151372354 0.5174339693080099 0.9349009428977033     C
C     0.5174339693080098 0.9361410384862765 0.6115240493080102     C
C     0.052673537102296754 1.4009014706919896 0.49499155069198947     C
C     0.05267353710229683 1.0514334415137236 0.4009014706919901     C
C     0.5174339693080102 0.9349009428977028 0.9361410384862768     C
C     0.49499155069198963 0.40090147069198934 1.0514334415137239     C
C     -0.5050084493080104 1.0514334415137228 1.0526735371022975     C
C     -0.06385896151372326 0.9349009428977029 0.6115240493080104     C
C     -0.06385896151372399 0.6115240493080105 1.5174339693080103     C
C     0.5174339693080103 0.6115240493080095 0.9349009428977034     C
C     0.052673537102296844 0.49499155069198997 1.4009014706919896     C
C     -0.38847595069198987 0.9349009428977028 0.9361410384862768     C
C     -0.0638589615137236 1.5174339693080099 0.6115240493080096     C
C     0.40090147069198984 1.0514334415137228 1.0526735371022975     C
C     0.0526735371022967 0.4009014706919897 1.0514334415137236     C
C     0.05267353710229681 1.0514334415137236 0.4949915506919902     C
C     0.40090147069198934 1.0526735371022973 0.49499155069198975     C
C     0.61152404930801 0.5174339693080097 0.9349009428977034     C
C     0.6115240493080097 0.936141038486277 0.5174339693080097     C
C     -0.06385896151372367 0.9349009428977033 0.5174339693080106     C
C     -0.06385896151372328 0.6115240493080099 0.9349009428977029     C
C     0.4009014706919896 0.49499155069198947 1.0514334415137236     C
C     0.30881657000000007 0.9959518499999999 0.6992797300000001     C
C     -0.004048150000000316 1.3088165699999998 0.99595185     C
C     -0.30072027000000007 0.9959518499999999 1.30881657     C
C     -0.004048150000000316 0.6992797299999999 0.99595185     C
C     0.3088165700000002 0.9959518499999999 0.99595185     C
C     0.30881657000000007 0.6992797299999999 0.99595185     C
C     -0.004048150000000554 1.3088165699999998 0.6992797300000001     C
C     -0.00404815000000011 0.9959518499999999 0.6992797300000001     C
C     -0.00404815000000011 0.6992797299999999 1.30881657     C
C     -0.3007202700000002 1.3088165699999998 0.99595185     C
C     -0.3007202700000001 0.9959518499999999 0.99595185     C
C     -0.00404815000000011 0.9959518499999999 1.30881657     C
O     0.06730802999999999 0.06730802999999999 0.79807592     O
O     0.06730802999999999 0.06730802999999999 0.06730803     O
O     0.79807592 0.06730802999999999 0.06730803     O
O     0.06730802999999999 0.79807592 0.06730803     O
O     0.07472636999999994 0.7379187399999999 0.92010767     O
O     -0.26208126000000015 1.07472637 1.26724722     O
O     -0.07989232999999991 1.2672472199999998 1.07472637     O
O     0.26724722 0.92010767 0.73791874     O
O     0.07472637000000004 1.2672472199999998 0.73791874     O
O     0.07472637000000014 0.9201076699999998 1.26724722     O
O     0.2672472200000002 1.0747263699999998 0.92010767     O
O     -0.2620812599999995 1.2672472199999998 0.92010767     O
O     -0.26208126000000015 0.9201076699999998 1.07472637     O
O     -0.07989233000000054 1.07472637 0.73791874     O
O     -0.07989233000000019 0.7379187399999999 1.26724722     O
O     0.2672472200000001 0.7379187399999999 1.07472637     O
O     0.07472637000000003 0.7379187399999999 1.26724722     O
O     -0.2620812599999995 1.0747263699999998 0.92010767     O
O     -0.07989232999999984 1.2672472199999998 0.73791874     O
O     0.26724722 0.9201076699999998 1.07472637     O
O     0.07472637000000006 1.2672472199999998 0.92010767     O
O     0.07472636999999999 0.92010767 0.73791874     O
O     0.26724722 1.07472637 0.73791874     O
O     -0.26208126000000004 1.2672472199999998 1.07472637     O
O     -0.26208125999999965 0.9201076699999998 1.26724722     O
O     -0.07989232999999997 1.07472637 1.26724722     O
O     -0.07989233000000036 0.7379187399999999 1.07472637     O
O     0.26724721999999995 0.7379187399999999 0.92010767     O
O     0.9495820799999999 0.94958208 0.15125376     O
O     0.9495820800000001 0.9495820799999999 0.94958208     O
O     0.15125375999999985 0.9495820799999999 0.94958208     O
O     0.9495820799999999 0.15125375999999996 0.94958208     O
N     0.11111965363618259 0.48360109734421813 1.1086487322893355     N
H     0.15396232056375345 0.4060197394171611 1.1505891689040166     H
H     0.11147629023365767 0.5527634245359658 1.1089978584218476     H
N     -0.12107425228933556 0.5288244226557819 0.8764548263638173     N
H     -0.16301468890401555 0.606405780582839 0.8336121594362461     H
H     -0.12142337842184651 0.4596620954640339 0.876098189766342     H
N     0.48360109734421747 1.1111196536361838 0.29663051673026325     N
H     0.40601973941716024 1.1539623205637553 0.2894287711150692     H
H     0.5527634245359653 1.1114762902336595 0.22676242680852876     H
N     0.5288244226557812 0.8789257477106651 0.7157950032697362     N
H     0.6064057805828388 0.8369853110959854 0.7229967488849303     H
H     0.4596620954640337 0.8785766215781545 0.7856630931914699     H
N     0.11111965363618244 1.2966305167302634 0.4836010973442179     N
H     0.15396232056375395 1.2894287711150696 0.4060197394171603     H
H     0.11147629023365781 1.2267624268085295 0.5527634245359658     H
N     -0.12107425228933462 0.7157950032697368 1.5288244226557812     N
H     -0.16301468890401463 0.7229967488849306 1.606405780582839     H
H     -0.12142337842184575 0.7856630931914708 1.4596620954640336     H
N     0.11111965363618322 1.1086487322893352 0.29663051673026386     N
H     0.15396232056375406 1.1505891689040155 0.2894287711150703     H
H     0.11147629023365876 1.1089978584218463 0.2267624268085295     H
N     -0.12107425228933473 0.8764548263638161 0.7157950032697368     N
H     -0.1630146889040147 0.8336121594362448 0.7229967488849307     H
H     -0.1214233784218457 0.8760981897663407 0.7856630931914707     H
N     0.5288244226557818 0.8764548263638166 0.8789257477106653     N
H     0.6064057805828389 0.833612159436245 0.8369853110959855     H
H     0.45966209546403386 0.876098189766341 0.8785766215781542     H
N     -0.5163989026557825 1.1086487322893346 1.111119653636184     N
H     -0.5939802605828395 1.150589168904014 1.1539623205637555     H
H     -0.4472365754640351 1.1089978584218458 1.1114762902336592     H
N     0.4836010973442179 0.29663051673026336 1.1086487322893355     N
H     0.4060197394171608 0.28942877111506965 1.1505891689040155     H
H     0.5527634245359654 0.22676242680852965 1.1089978584218467     H
N     0.5288244226557824 0.7157950032697357 0.8764548263638166     N
H     0.6064057805828398 0.7229967488849298 0.8336121594362452     H
H     0.4596620954640352 0.7856630931914703 0.8760981897663405     H
