data_I
_chemical_name_common  'NH2/30/modified_NH2_30'
_cell_length_a 14.67267
_cell_length_b 14.67267
_cell_length_c 14.67267
_cell_angle_alpha 60.00000
_cell_angle_beta  60.00000
_cell_angle_gamma 60.00000
_space_group_name_H-M_alt      'P 1'


loop_
_space_group_symop_operation_xyz
  'x, y, z' 

loop_
_atom_site_label
_atom_site_fract_x
_atom_site_fract_y
_atom_site_fract_z
_atom_site_type_symbol
Zr    0.11979582999999991 0.88020417 0.88020417    Zr
Zr    0.8802041699999997 0.11979582999999998 0.11979583    Zr
Zr    0.11979582999999996 0.11979583000000002 0.88020417    Zr
Zr    0.11979583000000003 0.8802041699999997 0.11979583    Zr
Zr    0.8802041699999997 0.11979583000000002 0.88020417    Zr
Zr    0.8802041699999998 0.8802041699999997 0.11979583    Zr
H     0.09439580999999993 0.71681257 0.09439581     H
H     0.7168125700000001 0.09439580999999998 0.09439581     H
H     0.09439580999999996 0.09439580999999998 0.09439581     H
H     0.09439580999999994 0.09439581 0.71681257     H
H     0.17154062766812916 0.5411743249585016 1.3687950549585013     H
H     -0.35573102308854554 1.067924632956475 0.8159166832206158     H
H     -0.1840833167793835 1.4718897069114545 0.6442689769114543     H
H     0.36879505495850184 0.9184899924148676 1.1715406276681288     H
H     0.1715406276681289 0.36879505495850146 0.918489992414868     H
H     0.17154062766812878 0.9184899924148673 0.5411743249585019     H
H     0.36879505495850157 1.171540627668129 0.5411743249585016     H
H     0.6442689769114548 0.4718897069114544 1.067924632956475     H
H     0.6442689769114541 0.8159166832206161 0.47188970691145443     H
H     -0.184083316779384 1.0679246329564749 0.4718897069114549     H
H     -0.18408331677938441 0.6442689769114546 1.0679246329564749     H
H     0.3687950549585017 0.5411743249585014 0.918489992414868     H
C     -0.006212760000000258 0.60055787 0.9937872400000001     C
C     -0.3994421300000001 0.9937872399999998 1.4118676500000003     C
C     -0.0062127600000004245 1.4118676500000003 0.9937872400000001     C
C     0.41186764999999936 0.99378724 0.60055787     C
C     -0.006212760000000525 1.41186765 0.60055787     C
C     -0.0062127600000000715 0.9937872399999998 1.4118676500000003     C
C     0.4118676499999999 0.99378724 0.9937872400000001     C
C     -0.39944212999999973 1.4118676500000003 0.9937872400000001     C
C     -0.39944213000000023 0.99378724 0.9937872400000001     C
C     -0.006212759999999998 0.99378724 0.60055787     C
C     -0.006212760000000127 0.6005578699999998 1.4118676500000003     C
C     0.4118676499999998 0.60055787 0.9937872400000001     C
C     0.09421197838832261 0.52450437552403 0.9508693505636174     C
C     0.5245043755240301 1.0942119783883226 0.43041429552403004     C
C     -0.10677685095010596 0.48868054483204004 1.0353256812860254     C
C     0.4886805448320397 0.8932231490498939 0.5827706248320402     C
C     0.09421197838832296 1.4304142955240298 0.5245043755240301     C
C     0.09421197838832247 0.950869350563617 0.4304142955240305     C
C     0.4886805448320404 1.0353256812860254 0.893223149049894     C
C     0.5245043755240301 0.43041429552403 0.9508693505636171     C
C     -0.47549562447596994 0.9508693505636167 1.0942119783883228     C
C     -0.1067768509501063 1.035325681286025 0.5827706248320407     C
C     -0.10677685095010624 0.5827706248320405 1.48868054483204     C
C     0.48868054483204065 0.5827706248320399 1.0353256812860252     C
C     0.0942119783883226 0.5245043755240303 1.4304142955240298     C
C     -0.41722937516795977 1.0353256812860254 0.893223149049894     C
C     -0.10677685095010567 1.4886805448320397 0.5827706248320401     C
C     0.4304142955240303 0.9508693505636167 1.0942119783883228     C
C     0.0942119783883226 0.43041429552403 0.9508693505636173     C
C     0.09421197838832242 0.950869350563617 0.5245043755240305     C
C     0.43041429552403027 1.0942119783883224 0.52450437552403     C
C     0.5827706248320406 0.4886805448320401 1.0353256812860252     C
C     0.5827706248320403 0.8932231490498941 0.4886805448320402     C
C     -0.10677685095010611 1.0353256812860256 0.48868054483204065     C
C     -0.10677685095010629 0.5827706248320401 1.0353256812860252     C
C     0.43041429552403054 0.5245043755240301 0.9508693505636171     C
C     0.30881657000000007 0.9959518499999999 0.6992797300000001     C
C     -0.004048150000000316 1.3088165699999998 0.99595185     C
C     -0.30072027000000007 0.9959518499999999 1.30881657     C
C     -0.004048150000000316 0.6992797299999999 0.99595185     C
C     0.3088165700000002 0.9959518499999999 0.99595185     C
C     0.30881657000000007 0.6992797299999999 0.99595185     C
C     -0.004048150000000554 1.3088165699999998 0.6992797300000001     C
C     -0.00404815000000011 0.9959518499999999 0.6992797300000001     C
C     -0.00404815000000011 0.6992797299999999 1.30881657     C
C     -0.3007202700000002 1.3088165699999998 0.99595185     C
C     -0.3007202700000001 0.9959518499999999 0.99595185     C
C     -0.00404815000000011 0.9959518499999999 1.30881657     C
O     0.06730802999999999 0.06730802999999999 0.79807592     O
O     0.06730802999999999 0.06730802999999999 0.06730803     O
O     0.79807592 0.06730802999999999 0.06730803     O
O     0.06730802999999999 0.79807592 0.06730803     O
O     0.07472636999999994 0.7379187399999999 0.92010767     O
O     -0.26208126000000015 1.07472637 1.26724722     O
O     -0.07989232999999991 1.2672472199999998 1.07472637     O
O     0.26724722 0.92010767 0.73791874     O
O     0.07472637000000004 1.2672472199999998 0.73791874     O
O     0.07472637000000014 0.9201076699999998 1.26724722     O
O     0.2672472200000002 1.0747263699999998 0.92010767     O
O     -0.2620812599999995 1.2672472199999998 0.92010767     O
O     -0.26208126000000015 0.9201076699999998 1.07472637     O
O     -0.07989233000000054 1.07472637 0.73791874     O
O     -0.07989233000000019 0.7379187399999999 1.26724722     O
O     0.2672472200000001 0.7379187399999999 1.07472637     O
O     0.07472637000000003 0.7379187399999999 1.26724722     O
O     -0.2620812599999995 1.0747263699999998 0.92010767     O
O     -0.07989232999999984 1.2672472199999998 0.73791874     O
O     0.26724722 0.9201076699999998 1.07472637     O
O     0.07472637000000006 1.2672472199999998 0.92010767     O
O     0.07472636999999999 0.92010767 0.73791874     O
O     0.26724722 1.07472637 0.73791874     O
O     -0.26208126000000004 1.2672472199999998 1.07472637     O
O     -0.26208125999999965 0.9201076699999998 1.26724722     O
O     -0.07989232999999997 1.07472637 1.26724722     O
O     -0.07989233000000036 0.7379187399999999 1.07472637     O
O     0.26724721999999995 0.7379187399999999 0.92010767     O
O     0.9495820799999999 0.94958208 0.15125376     O
O     0.9495820800000001 0.9495820799999999 0.94958208     O
O     0.15125375999999985 0.9495820799999999 0.94958208     O
O     0.9495820799999999 0.15125375999999996 0.94958208     O
N     0.19388603248163008 0.5424061358873887 0.9082722763575471     N
H     0.266949951080302 0.4862968043330261 0.8770474085557386     H
H     0.19449424082149194 0.6117472033624946 0.9080123501809565     H
N     -0.20658921593178836 0.47153250823619297 1.0765536188454474     N
H     -0.27975452034827736 0.5281943407648194 1.1067748705165474     H
H     -0.20719826824089063 0.40219603996281045 1.0768051905878333     H
N     0.5424061358873886 1.1938860324816305 0.3554355552734344     N
H     0.48629680433302613 1.2669499510803017 0.369705836030935     H
H     0.6117472033624948 1.194494240821492 0.28574620563505854     H
N     0.47153250823619325 0.7934107840682113 0.6585030888501479     N
H     0.5281943407648196 0.7202454796517225 0.6447853090669113     H
H     0.4021960399628111 0.7928017317591096 0.728197037690247     H
N     0.19388603248163033 1.355435555273434 0.5424061358873885     N
H     0.2669499510803017 1.3697058360309347 0.48629680433302575     H
H     0.19449424082149142 1.2857462056350581 0.6117472033624944     H
N     -0.2065892159317883 0.6585030888501483 1.4715325082361936     N
H     -0.2797545203482775 0.6447853090669114 1.5281943407648197     H
H     -0.20719826824089058 0.7281970376902477 1.4021960399628108     H
N     0.19388603248163053 0.9082722763575465 0.3554355552734347     N
H     0.26694995108030134 0.8770474085557376 0.3697058360309356     H
H     0.19449424082149147 0.9080123501809553 0.28574620563505876     H
N     -0.20658921593178878 1.0765536188454465 0.6585030888501485     N
H     -0.2797545203482781 1.106774870516546 0.6447853090669116     H
H     -0.20719826824089085 1.0768051905878322 0.7281970376902477     H
N     0.47153250823619336 1.076553618845447 0.7934107840682116     N
H     0.5281943407648195 1.1067748705165465 0.7202454796517227     H
H     0.40219603996281056 1.0768051905878326 0.7928017317591092     H
N     -0.4575938641126116 0.908272276357546 1.1938860324816307     N
H     -0.5137031956669738 0.8770474085557368 1.2669499510803013     H
H     -0.38825279663750584 0.9080123501809546 1.1944942408214918     H
N     0.5424061358873886 0.35543555527343407 0.9082722763575467     N
H     0.48629680433302586 0.3697058360309348 0.8770474085557378     H
H     0.6117472033624942 0.28574620563505826 0.908012350180956     H
N     0.47153250823619447 0.6585030888501476 1.0765536188454465     N
H     0.5281943407648204 0.6447853090669103 1.1067748705165465     H
H     0.402196039962812 0.7281970376902472 1.0768051905878324     H
