data_I
_chemical_name_common  'CN/180/modified_CN_180'
_cell_length_a 14.67267
_cell_length_b 14.67267
_cell_length_c 14.67267
_cell_angle_alpha 60.00000
_cell_angle_beta  60.00000
_cell_angle_gamma 60.00000
_space_group_name_H-M_alt      'P 1'


loop_
_space_group_symop_operation_xyz
  'x, y, z' 

loop_
_atom_site_label
_atom_site_fract_x
_atom_site_fract_y
_atom_site_fract_z
_atom_site_type_symbol
Zr    0.11979582999999991 0.88020417 0.88020417    Zr
Zr    0.8802041699999997 0.11979582999999998 0.11979583    Zr
Zr    0.11979582999999996 0.11979583000000002 0.88020417    Zr
Zr    0.11979583000000003 0.8802041699999997 0.11979583    Zr
Zr    0.8802041699999997 0.11979583000000002 0.88020417    Zr
Zr    0.8802041699999998 0.8802041699999997 0.11979583    Zr
H     0.09439580999999993 0.71681257 0.09439581     H
H     0.7168125700000001 0.09439580999999998 0.09439581     H
H     0.09439580999999996 0.09439580999999998 0.09439581     H
H     0.09439580999999994 0.09439581 0.71681257     H
H     -0.15164196999999996 0.5920337499999997 1.41965448     H
H     -0.4079662500000001 0.8483580299999998 1.1399537400000002     H
H     0.13995373999999874 1.4196544800000002 0.59203375     H
H     0.41965448 1.13995374 0.8483580300000002     H
H     -0.15164197000000046 0.4196544800000002 1.1399537400000002     H
H     -0.15164197000000001 1.1399537400000002 0.59203375     H
H     0.4196544799999993 0.8483580299999997 0.5920337499999997     H
H     0.5920337500000001 0.41965447999999983 0.84835803     H
H     0.5920337499999995 1.1399537399999995 0.41965447999999955     H
H     0.13995373999999924 0.8483580300000002 0.4196544800000007     H
H     0.1399537399999997 0.5920337499999998 0.84835803     H
H     0.4196544800000004 0.59203375 1.13995374     H
C     -0.006212760000000258 0.60055787 0.9937872400000001     C
C     -0.3994421300000001 0.9937872399999998 1.4118676500000003     C
C     -0.0062127600000004245 1.4118676500000003 0.9937872400000001     C
C     0.41186764999999936 0.99378724 0.60055787     C
C     -0.006212760000000525 1.41186765 0.60055787     C
C     -0.0062127600000000715 0.9937872399999998 1.4118676500000003     C
C     0.4118676499999999 0.99378724 0.9937872400000001     C
C     -0.39944212999999973 1.4118676500000003 0.9937872400000001     C
C     -0.39944213000000023 0.99378724 0.9937872400000001     C
C     -0.006212759999999998 0.99378724 0.60055787     C
C     -0.006212760000000127 0.6005578699999998 1.4118676500000003     C
C     0.4118676499999998 0.60055787 0.9937872400000001     C
C     -0.08817524000000072 0.5528193600000001 1.0766266     C
C     0.5528193599999992 0.9118247599999998 0.4587292799999999     C
C     0.07662659999999925 0.4587292800000001 0.9118247600000002     C
C     0.4587292799999997 1.0766265999999993 0.5528193600000001     C
C     -0.08817524000000143 1.4587292799999998 0.5528193600000005     C
C     -0.0881752400000003 1.0766265999999998 0.45872928000000046     C
C     0.45872928 0.9118247599999997 1.0766266000000002     C
C     0.5528193600000006 0.4587292799999998 1.0766266     C
C     -0.4471806400000004 1.0766266 0.9118247600000003     C
C     0.07662659999999984 0.91182476 0.5528193600000003     C
C     0.07662659999999961 0.5528193600000003 1.45872928     C
C     0.4587292800000004 0.5528193599999995 0.9118247600000002     C
C     -0.08817524000000046 0.55281936 1.4587292800000005     C
C     -0.4471806400000001 0.9118247599999997 1.0766266000000002     C
C     0.07662659999999856 1.45872928 0.5528193600000003     C
C     0.4587292799999999 1.0766266 0.9118247600000003     C
C     -0.08817524000000056 0.4587292800000002 1.0766266     C
C     -0.08817524000000024 1.0766265999999998 0.5528193600000005     C
C     0.45872927999999946 0.9118247599999997 0.5528193599999998     C
C     0.5528193600000002 0.45872927999999985 0.9118247600000002     C
C     0.5528193599999992 1.0766266 0.4587292799999996     C
C     0.07662659999999935 0.91182476 0.4587292800000008     C
C     0.07662659999999964 0.5528193599999995 0.9118247600000002     C
C     0.45872928000000046 0.5528193599999999 1.0766266     C
C     0.30881657000000007 0.9959518499999999 0.6992797300000001     C
C     -0.004048150000000316 1.3088165699999998 0.99595185     C
C     -0.30072027000000007 0.9959518499999999 1.30881657     C
C     -0.004048150000000316 0.6992797299999999 0.99595185     C
C     0.3088165700000002 0.9959518499999999 0.99595185     C
C     0.30881657000000007 0.6992797299999999 0.99595185     C
C     -0.004048150000000554 1.3088165699999998 0.6992797300000001     C
C     -0.00404815000000011 0.9959518499999999 0.6992797300000001     C
C     -0.00404815000000011 0.6992797299999999 1.30881657     C
C     -0.3007202700000002 1.3088165699999998 0.99595185     C
C     -0.3007202700000001 0.9959518499999999 0.99595185     C
C     -0.00404815000000011 0.9959518499999999 1.30881657     C
O     0.06730802999999999 0.06730802999999999 0.79807592     O
O     0.06730802999999999 0.06730802999999999 0.06730803     O
O     0.79807592 0.06730802999999999 0.06730803     O
O     0.06730802999999999 0.79807592 0.06730803     O
O     0.07472636999999994 0.7379187399999999 0.92010767     O
O     -0.26208126000000015 1.07472637 1.26724722     O
O     -0.07989232999999991 1.2672472199999998 1.07472637     O
O     0.26724722 0.92010767 0.73791874     O
O     0.07472637000000004 1.2672472199999998 0.73791874     O
O     0.07472637000000014 0.9201076699999998 1.26724722     O
O     0.2672472200000002 1.0747263699999998 0.92010767     O
O     -0.2620812599999995 1.2672472199999998 0.92010767     O
O     -0.26208126000000015 0.9201076699999998 1.07472637     O
O     -0.07989233000000054 1.07472637 0.73791874     O
O     -0.07989233000000019 0.7379187399999999 1.26724722     O
O     0.2672472200000001 0.7379187399999999 1.07472637     O
O     0.07472637000000003 0.7379187399999999 1.26724722     O
O     -0.2620812599999995 1.0747263699999998 0.92010767     O
O     -0.07989232999999984 1.2672472199999998 0.73791874     O
O     0.26724722 0.9201076699999998 1.07472637     O
O     0.07472637000000006 1.2672472199999998 0.92010767     O
O     0.07472636999999999 0.92010767 0.73791874     O
O     0.26724722 1.07472637 0.73791874     O
O     -0.26208126000000004 1.2672472199999998 1.07472637     O
O     -0.26208125999999965 0.9201076699999998 1.26724722     O
O     -0.07989232999999997 1.07472637 1.26724722     O
O     -0.07989233000000036 0.7379187399999999 1.07472637     O
O     0.26724721999999995 0.7379187399999999 0.92010767     O
O     0.9495820799999999 0.94958208 0.15125376     O
O     0.9495820800000001 0.9495820799999999 0.94958208     O
O     0.15125375999999985 0.9495820799999999 0.94958208     O
O     0.9495820799999999 0.15125375999999996 0.94958208     O
C     -0.17306199075832218 0.6008246688906893 1.1624215162262879     C
N     -0.24203247574945824 0.6398289823643741 1.2321298856601466     N
C     0.16242151622628748 0.40981580564134495 0.8269380092416787     C
N     0.23212988566014642 0.37007360772493775 0.7579675242505426     N
C     0.6008246688906881 0.8269380092416787 0.40981580564134373     C
N     0.6398289823643719 0.7579675242505433 0.3700736077249362     N
C     0.40981580564134357 1.1624215162262883 0.6008246688906885     C
N     0.37007360772493625 1.2321298856601473 0.6398289823643725     N
C     -0.1730619907583233 1.4098158056413448 0.600824668890689     C
N     -0.24203247574945905 1.370073607724937 0.6398289823643735     N
C     0.1624215162262886 0.6008246688906881 1.4098158056413443     C
N     0.23212988566014792 0.639828982364373 1.370073607724936     N
C     -0.17306199075832207 1.1624215162262883 0.4098158056413455     C
N     -0.24203247574945838 1.2321298856601475 0.3700736077249383     N
C     0.1624215162262887 0.8269380092416792 0.6008246688906879     C
N     0.23212988566014814 0.7579675242505431 0.639828982364372     N
C     0.40981580564134423 0.8269380092416788 1.1624215162262885     C
N     0.3700736077249366 0.757967524250543 1.232129885660148     N
C     -0.3991753311093124 1.1624215162262883 0.8269380092416793     C
N     -0.36017101763562825 1.2321298856601477 0.7579675242505433     N
C     0.6008246688906889 0.40981580564134457 1.162421516226288     C
N     0.639828982364373 0.37007360772493736 1.2321298856601473     N
C     0.409815805641345 0.6008246688906875 0.8269380092416788     C
N     0.3700736077249379 0.6398289823643714 0.757967524250543     N
