data_I
_chemical_name_common  'NO2/90/modified_NO2_90'
_cell_length_a 14.67267
_cell_length_b 14.67267
_cell_length_c 14.67267
_cell_angle_alpha 60.00000
_cell_angle_beta  60.00000
_cell_angle_gamma 60.00000
_space_group_name_H-M_alt      'P 1'


loop_
_space_group_symop_operation_xyz
  'x, y, z' 

loop_
_atom_site_label
_atom_site_fract_x
_atom_site_fract_y
_atom_site_fract_z
_atom_site_type_symbol
Zr    0.11979582999999991 0.88020417 0.88020417    Zr
Zr    0.8802041699999997 0.11979582999999998 0.11979583    Zr
Zr    0.11979582999999996 0.11979583000000002 0.88020417    Zr
Zr    0.11979583000000003 0.8802041699999997 0.11979583    Zr
Zr    0.8802041699999997 0.11979583000000002 0.88020417    Zr
Zr    0.8802041699999998 0.8802041699999997 0.11979583    Zr
H     0.09439580999999993 0.71681257 0.09439581     H
H     0.7168125700000001 0.09439580999999998 0.09439581     H
H     0.09439580999999996 0.09439580999999998 0.09439581     H
H     0.09439580999999994 0.09439581 0.71681257     H
H     0.09740323471165434 0.48930774304704694 1.3169284730470465     H
H     -0.30450295304704705 0.8901712452883458 0.8912139308057482     H
H     -0.1087860691942521 1.523117776952953 0.6954970469529523     H
H     0.316928473047047 1.0963605491942519 1.0974032347116542     H
H     0.09740323471165382 0.3169284730470469 1.0963605491942523     H
H     0.09740323471165394 1.0963605491942519 0.48930774304704716     H
H     0.3169284730470466 1.0974032347116545 0.4893077430470468     H
H     0.6954970469529532 0.5231177769529527 0.890171245288346     H
H     0.6954970469529524 0.8912139308057483 0.5231177769529527     H
H     -0.10878606919425242 0.8901712452883466 0.5231177769529531     H
H     -0.10878606919425203 0.695497046952953 0.8901712452883457     H
H     0.3169284730470466 0.4893077430470469 1.0963605491942523     H
C     -0.006212760000000258 0.60055787 0.9937872400000001     C
C     -0.3994421300000001 0.9937872399999998 1.4118676500000003     C
C     -0.0062127600000004245 1.4118676500000003 0.9937872400000001     C
C     0.41186764999999936 0.99378724 0.60055787     C
C     -0.006212760000000525 1.41186765 0.60055787     C
C     -0.0062127600000000715 0.9937872399999998 1.4118676500000003     C
C     0.4118676499999999 0.99378724 0.9937872400000001     C
C     -0.39944212999999973 1.4118676500000003 0.9937872400000001     C
C     -0.39944213000000023 0.99378724 0.9937872400000001     C
C     -0.006212759999999998 0.99378724 0.60055787     C
C     -0.006212760000000127 0.6005578699999998 1.4118676500000003     C
C     0.4118676499999998 0.60055787 0.9937872400000001     C
C     0.052673537102296754 0.4949915506919897 1.0514334415137236     C
C     0.49499155069198925 1.0526735371022973 0.4009014706919895     C
C     -0.06385896151372354 0.5174339693080099 0.9349009428977033     C
C     0.5174339693080098 0.9361410384862765 0.6115240493080102     C
C     0.052673537102296754 1.4009014706919896 0.49499155069198947     C
C     0.05267353710229683 1.0514334415137236 0.4009014706919901     C
C     0.5174339693080102 0.9349009428977028 0.9361410384862768     C
C     0.49499155069198963 0.40090147069198934 1.0514334415137239     C
C     -0.5050084493080104 1.0514334415137228 1.0526735371022975     C
C     -0.06385896151372326 0.9349009428977029 0.6115240493080104     C
C     -0.06385896151372399 0.6115240493080105 1.5174339693080103     C
C     0.5174339693080103 0.6115240493080095 0.9349009428977034     C
C     0.052673537102296844 0.49499155069198997 1.4009014706919896     C
C     -0.38847595069198987 0.9349009428977028 0.9361410384862768     C
C     -0.0638589615137236 1.5174339693080099 0.6115240493080096     C
C     0.40090147069198984 1.0514334415137228 1.0526735371022975     C
C     0.0526735371022967 0.4009014706919897 1.0514334415137236     C
C     0.05267353710229681 1.0514334415137236 0.4949915506919902     C
C     0.40090147069198934 1.0526735371022973 0.49499155069198975     C
C     0.61152404930801 0.5174339693080097 0.9349009428977034     C
C     0.6115240493080097 0.936141038486277 0.5174339693080097     C
C     -0.06385896151372367 0.9349009428977033 0.5174339693080106     C
C     -0.06385896151372328 0.6115240493080099 0.9349009428977029     C
C     0.4009014706919896 0.49499155069198947 1.0514334415137236     C
C     0.30881657000000007 0.9959518499999999 0.6992797300000001     C
C     -0.004048150000000316 1.3088165699999998 0.99595185     C
C     -0.30072027000000007 0.9959518499999999 1.30881657     C
C     -0.004048150000000316 0.6992797299999999 0.99595185     C
C     0.3088165700000002 0.9959518499999999 0.99595185     C
C     0.30881657000000007 0.6992797299999999 0.99595185     C
C     -0.004048150000000554 1.3088165699999998 0.6992797300000001     C
C     -0.00404815000000011 0.9959518499999999 0.6992797300000001     C
C     -0.00404815000000011 0.6992797299999999 1.30881657     C
C     -0.3007202700000002 1.3088165699999998 0.99595185     C
C     -0.3007202700000001 0.9959518499999999 0.99595185     C
C     -0.00404815000000011 0.9959518499999999 1.30881657     C
O     0.06730802999999999 0.06730802999999999 0.79807592     O
O     0.06730802999999999 0.06730802999999999 0.06730803     O
O     0.79807592 0.06730802999999999 0.06730803     O
O     0.06730802999999999 0.79807592 0.06730803     O
O     0.07472636999999994 0.7379187399999999 0.92010767     O
O     -0.26208126000000015 1.07472637 1.26724722     O
O     -0.07989232999999991 1.2672472199999998 1.07472637     O
O     0.26724722 0.92010767 0.73791874     O
O     0.07472637000000004 1.2672472199999998 0.73791874     O
O     0.07472637000000014 0.9201076699999998 1.26724722     O
O     0.2672472200000002 1.0747263699999998 0.92010767     O
O     -0.2620812599999995 1.2672472199999998 0.92010767     O
O     -0.26208126000000015 0.9201076699999998 1.07472637     O
O     -0.07989233000000054 1.07472637 0.73791874     O
O     -0.07989233000000019 0.7379187399999999 1.26724722     O
O     0.2672472200000001 0.7379187399999999 1.07472637     O
O     0.07472637000000003 0.7379187399999999 1.26724722     O
O     -0.2620812599999995 1.0747263699999998 0.92010767     O
O     -0.07989232999999984 1.2672472199999998 0.73791874     O
O     0.26724722 0.9201076699999998 1.07472637     O
O     0.07472637000000006 1.2672472199999998 0.92010767     O
O     0.07472636999999999 0.92010767 0.73791874     O
O     0.26724722 1.07472637 0.73791874     O
O     -0.26208126000000004 1.2672472199999998 1.07472637     O
O     -0.26208125999999965 0.9201076699999998 1.26724722     O
O     -0.07989232999999997 1.07472637 1.26724722     O
O     -0.07989233000000036 0.7379187399999999 1.07472637     O
O     0.26724721999999995 0.7379187399999999 0.92010767     O
O     0.9495820799999999 0.94958208 0.15125376     O
O     0.9495820800000001 0.9495820799999999 0.94958208     O
O     0.15125375999999985 0.9495820799999999 0.94958208     O
O     0.9495820799999999 0.15125375999999996 0.94958208     O
N     0.11577840205555019 0.48269316265707696 1.1132093714091311     N
O     0.1695759368695731 0.38958313957654506 1.1658739756623633     O
O     0.11887049681227009 0.5647160731965756 1.116236349266743     O
N     -0.12563489140913048 0.5297323573429229 0.8717960779444491     N
O     -0.17829949566236297 0.6228423804234554 0.8179985431304269     O
O     -0.1286618692667426 0.44770944680342467 0.8687039831877296     O
N     0.48269316265707596 1.115778402055552 0.28831906387824147     N
O     0.389583139576544 1.1695759368695748 0.27496694789151843     O
O     0.564716073196574 1.118870496812272 0.2001770807244111     O
N     0.5297323573429227 0.8743651085908701 0.7241064561217578     N
O     0.6228423804234547 0.8217005043376381 0.737458572108481     O
O     0.44770944680342417 0.8713381307332588 0.8122484392755878     O
N     0.11577840205554976 1.2883190638782422 0.4826931626570771     N
O     0.1695759368695732 1.274966947891519 0.3895831395765444     O
O     0.1188704968122698 1.2001770807244119 0.5647160731965749     O
N     -0.1256348914091305 0.7241064561217583 1.5297323573429236     N
O     -0.17829949566236178 0.7374585721084812 1.6228423804234549     O
O     -0.12866186926674172 0.8122484392755884 1.4477094468034246     O
N     0.11577840205555084 1.1132093714091307 0.2883190638782422     N
O     0.1695759368695738 1.1658739756623624 0.2749669478915196     O
O     0.11887049681227078 1.1162363492667424 0.20017708072441198     O
N     -0.12563489140913026 0.8717960779444484 0.7241064561217584     N
O     -0.17829949566236175 0.8179985431304256 0.737458572108481     O
O     -0.1286618692667414 0.8687039831877275 0.8122484392755883     O
N     0.5297323573429231 0.8717960779444485 0.8743651085908701     N
O     0.6228423804234549 0.8179985431304257 0.8217005043376384     O
O     0.4477094468034243 0.8687039831877287 0.8713381307332584     O
N     -0.5173068373429236 1.1132093714091293 1.115778402055552     N
O     -0.6104168604234556 1.165873975662361 1.1695759368695746     O
O     -0.43528392680342604 1.1162363492667415 1.1188704968122716     O
N     0.4826931626570764 0.2883190638782419 1.113209371409131     N
O     0.38958313957654467 0.27496694789151876 1.1658739756623633     O
O     0.5647160731965744 0.20017708072441182 1.1162363492667429     O
N     0.5297323573429237 0.7241064561217576 0.8717960779444489     N
O     0.6228423804234559 0.73745857210848 0.8179985431304256     O
O     0.4477094468034258 0.8122484392755882 0.8687039831877286     O
