data_I
_chemical_name_common  'NO2/30/modified_NO2_30'
_cell_length_a 14.67267
_cell_length_b 14.67267
_cell_length_c 14.67267
_cell_angle_alpha 60.00000
_cell_angle_beta  60.00000
_cell_angle_gamma 60.00000
_space_group_name_H-M_alt      'P 1'


loop_
_space_group_symop_operation_xyz
  'x, y, z' 

loop_
_atom_site_label
_atom_site_fract_x
_atom_site_fract_y
_atom_site_fract_z
_atom_site_type_symbol
Zr    0.11979582999999991 0.88020417 0.88020417    Zr
Zr    0.8802041699999997 0.11979582999999998 0.11979583    Zr
Zr    0.11979582999999996 0.11979583000000002 0.88020417    Zr
Zr    0.11979583000000003 0.8802041699999997 0.11979583    Zr
Zr    0.8802041699999997 0.11979583000000002 0.88020417    Zr
Zr    0.8802041699999998 0.8802041699999997 0.11979583    Zr
H     0.09439580999999993 0.71681257 0.09439581     H
H     0.7168125700000001 0.09439580999999998 0.09439581     H
H     0.09439580999999996 0.09439580999999998 0.09439581     H
H     0.09439580999999994 0.09439581 0.71681257     H
H     0.17154062766812916 0.5411743249585016 1.3687950549585013     H
H     -0.35573102308854554 1.067924632956475 0.8159166832206158     H
H     -0.1840833167793835 1.4718897069114545 0.6442689769114543     H
H     0.36879505495850184 0.9184899924148676 1.1715406276681288     H
H     0.1715406276681289 0.36879505495850146 0.918489992414868     H
H     0.17154062766812878 0.9184899924148673 0.5411743249585019     H
H     0.36879505495850157 1.171540627668129 0.5411743249585016     H
H     0.6442689769114548 0.4718897069114544 1.067924632956475     H
H     0.6442689769114541 0.8159166832206161 0.47188970691145443     H
H     -0.184083316779384 1.0679246329564749 0.4718897069114549     H
H     -0.18408331677938441 0.6442689769114546 1.0679246329564749     H
H     0.3687950549585017 0.5411743249585014 0.918489992414868     H
C     -0.006212760000000258 0.60055787 0.9937872400000001     C
C     -0.3994421300000001 0.9937872399999998 1.4118676500000003     C
C     -0.0062127600000004245 1.4118676500000003 0.9937872400000001     C
C     0.41186764999999936 0.99378724 0.60055787     C
C     -0.006212760000000525 1.41186765 0.60055787     C
C     -0.0062127600000000715 0.9937872399999998 1.4118676500000003     C
C     0.4118676499999999 0.99378724 0.9937872400000001     C
C     -0.39944212999999973 1.4118676500000003 0.9937872400000001     C
C     -0.39944213000000023 0.99378724 0.9937872400000001     C
C     -0.006212759999999998 0.99378724 0.60055787     C
C     -0.006212760000000127 0.6005578699999998 1.4118676500000003     C
C     0.4118676499999998 0.60055787 0.9937872400000001     C
C     0.09421197838832261 0.52450437552403 0.9508693505636174     C
C     0.5245043755240301 1.0942119783883226 0.43041429552403004     C
C     -0.10677685095010596 0.48868054483204004 1.0353256812860254     C
C     0.4886805448320397 0.8932231490498939 0.5827706248320402     C
C     0.09421197838832296 1.4304142955240298 0.5245043755240301     C
C     0.09421197838832247 0.950869350563617 0.4304142955240305     C
C     0.4886805448320404 1.0353256812860254 0.893223149049894     C
C     0.5245043755240301 0.43041429552403 0.9508693505636171     C
C     -0.47549562447596994 0.9508693505636167 1.0942119783883228     C
C     -0.1067768509501063 1.035325681286025 0.5827706248320407     C
C     -0.10677685095010624 0.5827706248320405 1.48868054483204     C
C     0.48868054483204065 0.5827706248320399 1.0353256812860252     C
C     0.0942119783883226 0.5245043755240303 1.4304142955240298     C
C     -0.41722937516795977 1.0353256812860254 0.893223149049894     C
C     -0.10677685095010567 1.4886805448320397 0.5827706248320401     C
C     0.4304142955240303 0.9508693505636167 1.0942119783883228     C
C     0.0942119783883226 0.43041429552403 0.9508693505636173     C
C     0.09421197838832242 0.950869350563617 0.5245043755240305     C
C     0.43041429552403027 1.0942119783883224 0.52450437552403     C
C     0.5827706248320406 0.4886805448320401 1.0353256812860252     C
C     0.5827706248320403 0.8932231490498941 0.4886805448320402     C
C     -0.10677685095010611 1.0353256812860256 0.48868054483204065     C
C     -0.10677685095010629 0.5827706248320401 1.0353256812860252     C
C     0.43041429552403054 0.5245043755240301 0.9508693505636171     C
C     0.30881657000000007 0.9959518499999999 0.6992797300000001     C
C     -0.004048150000000316 1.3088165699999998 0.99595185     C
C     -0.30072027000000007 0.9959518499999999 1.30881657     C
C     -0.004048150000000316 0.6992797299999999 0.99595185     C
C     0.3088165700000002 0.9959518499999999 0.99595185     C
C     0.30881657000000007 0.6992797299999999 0.99595185     C
C     -0.004048150000000554 1.3088165699999998 0.6992797300000001     C
C     -0.00404815000000011 0.9959518499999999 0.6992797300000001     C
C     -0.00404815000000011 0.6992797299999999 1.30881657     C
C     -0.3007202700000002 1.3088165699999998 0.99595185     C
C     -0.3007202700000001 0.9959518499999999 0.99595185     C
C     -0.00404815000000011 0.9959518499999999 1.30881657     C
O     0.06730802999999999 0.06730802999999999 0.79807592     O
O     0.06730802999999999 0.06730802999999999 0.06730803     O
O     0.79807592 0.06730802999999999 0.06730803     O
O     0.06730802999999999 0.79807592 0.06730803     O
O     0.07472636999999994 0.7379187399999999 0.92010767     O
O     -0.26208126000000015 1.07472637 1.26724722     O
O     -0.07989232999999991 1.2672472199999998 1.07472637     O
O     0.26724722 0.92010767 0.73791874     O
O     0.07472637000000004 1.2672472199999998 0.73791874     O
O     0.07472637000000014 0.9201076699999998 1.26724722     O
O     0.2672472200000002 1.0747263699999998 0.92010767     O
O     -0.2620812599999995 1.2672472199999998 0.92010767     O
O     -0.26208126000000015 0.9201076699999998 1.07472637     O
O     -0.07989233000000054 1.07472637 0.73791874     O
O     -0.07989233000000019 0.7379187399999999 1.26724722     O
O     0.2672472200000001 0.7379187399999999 1.07472637     O
O     0.07472637000000003 0.7379187399999999 1.26724722     O
O     -0.2620812599999995 1.0747263699999998 0.92010767     O
O     -0.07989232999999984 1.2672472199999998 0.73791874     O
O     0.26724722 0.9201076699999998 1.07472637     O
O     0.07472637000000006 1.2672472199999998 0.92010767     O
O     0.07472636999999999 0.92010767 0.73791874     O
O     0.26724722 1.07472637 0.73791874     O
O     -0.26208126000000004 1.2672472199999998 1.07472637     O
O     -0.26208125999999965 0.9201076699999998 1.26724722     O
O     -0.07989232999999997 1.07472637 1.26724722     O
O     -0.07989233000000036 0.7379187399999999 1.07472637     O
O     0.26724721999999995 0.7379187399999999 0.92010767     O
O     0.9495820799999999 0.94958208 0.15125376     O
O     0.9495820800000001 0.9495820799999999 0.94958208     O
O     0.15125375999999985 0.9495820799999999 0.94958208     O
O     0.9495820799999999 0.15125375999999996 0.94958208     O
N     0.20183106577892318 0.5438330878004098 0.9048768573990925     N
O     0.2935774248724413 0.47768548721018456 0.8656677923922164     O
O     0.2071043266612654 0.627405704390547 0.9026232570298048     O
N     -0.21454527401003856 0.47016563575391573 1.0798399037233724     N
O     -0.3064189432701465 0.5370070117911266 1.1177887280028678     O
O     -0.21982585223693799 0.38663289495789 1.0820210698489945     O
N     0.5438330878004098 1.2018310657789237 0.3494589890215751     N
O     0.4776854872101847 1.2935774248724417 0.36306929552515876     O
O     0.6274057043905472 1.2071043266612655 0.26286671191838396     O
N     0.4701656357539155 0.7854547259899618 0.664539734532751     N
O     0.5370070117911266 0.6935810567298532 0.6516232034761532     O
O     0.38663289495788977 0.7801741477630623 0.7511718874300543     O
N     0.20183106577892299 1.3494589890215747 0.54383308780041     N
O     0.29357742487244093 1.3630692955251589 0.4776854872101842     O
O     0.20710432666126477 1.2628667119183836 0.6274057043905467     O
N     -0.21454527401003912 0.6645397345327512 1.4701656357539161     N
O     -0.3064189432701468 0.6516232034761534 1.537007011791127     O
O     -0.21982585223693826 0.7511718874300543 1.3866328949578908     O
N     0.20183106577892315 0.9048768573990917 0.34945898902157563     N
O     0.2935774248724408 0.8656677923922154 0.36306929552515965     O
O     0.20710432666126502 0.9026232570298037 0.26286671191838423     O
N     -0.21454527401003898 1.0798399037233715 0.6645397345327514     N
O     -0.30641894327014707 1.1177887280028664 0.6516232034761532     O
O     -0.219825852236939 1.0820210698489927 0.7511718874300545     O
N     0.4701656357539158 1.079839903723372 0.7854547259899614     N
O     0.5370070117911269 1.1177887280028664 0.6935810567298535     O
O     0.38663289495789 1.0820210698489936 0.7801741477630622     O
N     -0.45616691219959 0.9048768573990909 1.2018310657789233     N
O     -0.5223145127898153 0.8656677923922148 1.2935774248724408     O
O     -0.3725942956094538 0.9026232570298034 1.2071043266612653     O
N     0.5438330878004096 0.34945898902157485 0.9048768573990921     N
O     0.477685487210184 0.36306929552515876 0.865667792392216     O
O     0.627405704390547 0.26286671191838373 0.9026232570298041     O
N     0.47016563575391623 0.6645397345327503 1.0798399037233721     N
O     0.5370070117911282 0.6516232034761522 1.1177887280028662     O
O     0.3866328949578912 0.7511718874300535 1.082021069848994     O
