data_I
_chemical_name_common  'COOH/90/modified_COOH_90'
_cell_length_a 14.67267
_cell_length_b 14.67267
_cell_length_c 14.67267
_cell_angle_alpha 60.00000
_cell_angle_beta  60.00000
_cell_angle_gamma 60.00000
_space_group_name_H-M_alt      'P 1'


loop_
_space_group_symop_operation_xyz
  'x, y, z' 

loop_
_atom_site_label
_atom_site_fract_x
_atom_site_fract_y
_atom_site_fract_z
_atom_site_type_symbol
Zr    0.8802041699999997 0.11979583000000002 0.88020417    Zr
Zr    0.11979583000000003 0.8802041699999997 0.11979583    Zr
Zr    0.11979582999999996 0.11979583000000002 0.88020417    Zr
Zr    0.11979582999999991 0.88020417 0.88020417    Zr
Zr    0.8802041699999997 0.11979582999999998 0.11979583    Zr
Zr    0.8802041699999998 0.8802041699999997 0.11979583    Zr
H     0.9056041899999999 0.9056041900000001 0.90560419     H
H     0.9056041899999999 0.90560419 0.28318743     H
H     0.28318743 0.9056041900000001 0.90560419     H
H     0.9056041899999999 0.28318743 0.90560419     H
H     0.903639450805748 -0.31692847304704697 0.9025967652883454     H
H     0.6830715269529526 -0.0963605491942516 1.510692256952953     H
H     1.1098287547116539 0.30450295304704655 1.1087860691942522     H
H     1.3045029530470464 0.10982875471165468 0.4768822230470469     H
H     0.5106922569529526 -0.09636054919425197 0.902596765288346     H
H     0.6830715269529525 0.510692256952953 0.9025967652883462     H
H     0.903639450805748 0.5106922569529532 0.683071526952953     H
H     1.108786069194252 0.1098287547116543 0.30450295304704633     H
H     1.1098287547116548 0.4768822230470468 0.3045029530470464     H
H     0.30450295304704666 0.47688222304704686 1.1087860691942522     H
H     0.4768822230470468 0.10982875471165392 1.1087860691942522     H
H     0.9025967652883456 -0.09636054919425167 0.6830715269529527     H
C     0.5881323499999999 0.006212759999999944 1.00621276     C
C     1.0062127600000002 -0.4118676499999999 1.39944213     C
C     1.3994421299999997 0.006212759999999944 1.00621276     C
C     1.00621276 0.39944213 0.58813235     C
C     1.0062127599999997 0.39944213 1.00621276     C
C     1.3994421299999997 -0.41186765 1.00621276     C
C     1.3994421300000002 0.006212759999999983 0.58813235     C
C     1.0062127599999997 0.006212759999999983 1.39944213     C
C     0.5881323499999996 0.006212759999999983 1.39944213     C
C     0.5881323499999996 0.39944213 1.00621276     C
C     1.0062127599999995 -0.41186765 1.00621276     C
C     1.0062127600000002 0.006212759999999983 0.58813235     C
C     0.59909852930801 -0.051433441513723165 0.9473264628977028     C
C     0.9485665584862765 0.5990985293080104 0.5050084493080099     C
C     0.38847595069198965 0.06509905710229709 1.063858961513723     C
C     1.0650990571022967 0.38847595069199065 0.48256603069198983     C
C     0.9485665584862767 0.5050084493080098 0.9473264628977028     C
C     0.5050084493080096 0.5990985293080098 0.9473264628977036     C
C     1.50500844930801 -0.05143344151372318 0.5990985293080102     C
C     0.9473264628977026 -0.05143344151372293 0.5050084493080099     C
C     0.4825660306919894 0.06509905710229709 1.38847595069199     C
C     0.48256603069198933 0.3884759506919896 1.0638589615137237     C
C     1.0650990571022967 -0.5174339693080106 1.0638589615137235     C
C     1.063858961513723 0.06509905710229706 0.48256603069198944     C
C     0.9485665584862766 -0.4009014706919899 0.9473264628977025     C
C     0.5990985293080097 -0.05143344151372303 1.5050084493080103     C
C     1.065099057102297 0.38847595069198954 1.0638589615137235     C
C     1.38847595069199 0.06509905710229723 0.48256603069198983     C
C     0.5050084493080098 -0.051433441513723165 0.9473264628977028     C
C     0.5990985293080098 0.5050084493080101 0.947326462897703     C
C     0.9485665584862767 0.5050084493080106 0.59909852930801     C
C     1.0638589615137237 0.06509905710229695 0.38847595069198937     C
C     1.0650990571022971 0.48256603069198983 0.38847595069198926     C
C     0.38847595069198937 0.4825660306919899 1.0638589615137235     C
C     0.4825660306919897 0.06509905710229709 1.063858961513723     C
C     0.947326462897703 -0.051433441513723054 0.5990985293080099     C
C     1.00404815 0.30072026999999996 0.6911834300000002     C
C     1.3007202699999998 0.004048149999999947 1.00404815     C
C     1.00404815 -0.30881657 1.30072027     C
C     0.6911834299999998 0.004048149999999947 1.00404815     C
C     1.30072027 0.004048149999999968 0.6911834300000002     C
C     1.00404815 0.004048149999999968 0.6911834300000002     C
C     1.00404815 0.30072027 1.00404815     C
C     0.69118343 0.30072027 1.00404815     C
C     1.00404815 -0.30881657 1.00404815     C
C     1.00404815 0.004048149999999962 1.30072027     C
C     0.69118343 0.004048149999999962 1.30072027     C
C     1.3007202699999998 -0.30881657 1.00404815     C
O     0.93269198 0.20192407999999998 0.9326919700000001     O
O     0.20192408999999992 0.93269197 0.9326919700000001     O
O     0.9326919800000001 0.93269197 0.20192408     O
O     0.93269198 0.93269197 0.9326919700000001     O
O     0.7327527800000001 0.07989232999999998 0.9252736300000001     O
O     1.0798923299999998 -0.2672472200000003 1.26208126     O
O     1.26208126 -0.07472637000000008 1.07989233     O
O     0.9252736300000001 0.26208126 0.7327527800000001     O
O     1.07989233 0.26208126 0.9252736300000001     O
O     1.2620812599999998 -0.2672472200000001 0.9252736300000001     O
O     1.26208126 0.07989232999999993 0.7327527800000001     O
O     0.9252736300000001 0.07989232999999993 1.26208126     O
O     0.7327527800000001 -0.07472637000000035 1.26208126     O
O     0.7327527799999997 0.2620812599999999 1.07989233     O
O     0.9252736300000001 -0.26724722000000006 1.07989233     O
O     1.0798923299999998 -0.07472637000000015 0.7327527800000001     O
O     1.0798923299999998 -0.2672472200000001 0.9252736300000001     O
O     0.7327527799999997 0.07989232999999993 1.26208126     O
O     0.9252736299999996 0.2620812599999999 1.07989233     O
O     1.2620812599999998 -0.07472637000000015 0.7327527800000001     O
O     1.26208126 0.07989232999999998 0.9252736300000001     O
O     0.7327527799999999 0.26208126 0.9252736300000001     O
O     1.0798923299999998 0.26208126 0.7327527800000001     O
O     1.07989233 -0.07472637000000035 1.26208126     O
O     0.9252736299999998 -0.2672472200000003 1.26208126     O
O     1.26208126 -0.26724722000000006 1.07989233     O
O     0.7327527800000001 -0.07472637000000008 1.07989233     O
O     0.9252736299999998 0.07989232999999993 0.7327527800000001     O
O     0.050417919999999894 0.8487462400000001 0.050417920000000005     O
O     0.8487462399999999 0.05041791999999999 0.050417920000000005     O
O     0.05041792000000005 0.05041791999999999 0.84874624     O
O     0.050417920000000005 0.05041791999999999 0.050417920000000005     O
C     0.7116809361217578 -0.11320937140912993 0.8842215979444485     C
O     0.7250330521084808 -0.16587397566236167 0.8304240631304257     O
O     0.7998229192755871 -0.11623634926674187 0.8811295031877285     O
H     0.8005917143995868 -0.20733433129686268 0.7880718047725365     H
C     0.2758935438782417 0.12820392205555142 1.1256348914091294     C
O     0.26254142789151885 0.18200145686957475 1.1782994956623611     O
O     0.18775156072441088 0.13129601681227152 1.1286618692667416     O
H     0.1869827656004124 0.22435371522746342 1.2197598512968624     H
C     0.8867906285908703 0.7116809361217583 0.517306837342923     C
O     0.8341260243376386 0.7250330521084809 0.6104168604234544     O
O     0.8837636507332586 0.7998229192755881 0.4352839268034245     O
H     0.7926656687031373 0.8005917143995871 0.6186708121247384     H
C     1.128203922055551 0.275893543878242 0.4702676426570771     C
O     1.182001456869574 0.2625414278915187 0.3771576195765455     O
O     1.1312960168122705 0.1877515607244123 0.5522905531965759     O
H     1.2243537152274622 0.18698276560041266 0.36890366787526185     H
C     0.8867906285908702 0.5173068373429224 0.8842215979444485     C
O     0.8341260243376386 0.6104168604234542 0.8304240631304257     O
O     0.8837636507332589 0.4352839268034243 0.8811295031877283     O
H     0.7926656687031377 0.6186708121247383 0.7880718047725362     H
C     1.1282039220555506 -0.5297323573429242 1.125634891409131     C
O     1.1820014568695734 -0.6228423804234559 1.1782994956623627     O
O     1.1312960168122705 -0.4477094468034266 1.1286618692667434     O
H     1.224353715227462 -0.6310963321247403 1.2197598512968642     H
C     0.5173068373429227 0.711680936121758 0.8842215979444493     C
O     0.6104168604234542 0.725033052108481 0.8304240631304264     O
O     0.435283926803424 0.799822919275588 0.8811295031877299     O
H     0.6186708121247383 0.8005917143995873 0.7880718047725376     H
C     0.47026764265707677 0.2758935438782417 1.12563489140913     C
O     0.3771576195765446 0.2625414278915186 1.1782994956623623     O
O     0.5522905531965749 0.1877515607244115 1.1286618692667418     O
H     0.3689036678752609 0.18698276560041233 1.2197598512968635     H
C     1.517306837342923 -0.11320937140913001 0.7116809361217581     C
O     1.6104168604234546 -0.16587397566236176 0.725033052108481     O
O     1.435283926803425 -0.11623634926674192 0.799822919275588     O
H     1.618670812124739 -0.20733433129686338 0.8005917143995868     H
C     0.4702676426570767 0.12820392205555126 1.2758935438782417     C
O     0.377157619576545 0.1820014568695743 1.2625414278915186     O
O     0.5522905531965748 0.13129601681227207 1.1877515607244118     O
H     0.3689036678752611 0.22435371522746284 1.1869827656004126     H
C     0.8842215979444484 -0.11320937140912979 0.5173068373429232     C
O     0.8304240631304255 -0.16587397566236162 0.6104168604234551     O
O     0.8811295031877283 -0.11623634926674155 0.43528392680342515     O
H     0.7880718047725368 -0.20733433129686268 0.6186708121247391     H
C     1.12563489140913 0.12820392205555114 0.47026764265707655     C
O     1.1782994956623627 0.18200145686957345 0.3771576195765447     O
O     1.1286618692667425 0.13129601681227077 0.5522905531965744     O
H     1.219759851296864 0.22435371522746236 0.36890366787526085     H
