data_I
_chemical_name_common  'CH3/120/modified_CH3_120'
_cell_length_a 14.67267
_cell_length_b 14.67267
_cell_length_c 14.67267
_cell_angle_alpha 60.00000
_cell_angle_beta  60.00000
_cell_angle_gamma 60.00000
_space_group_name_H-M_alt      'P 1'


loop_
_space_group_symop_operation_xyz
  'x, y, z' 

loop_
_atom_site_label
_atom_site_fract_x
_atom_site_fract_y
_atom_site_fract_z
_atom_site_type_symbol
Zr    0.11979582999999991 0.88020417 0.88020417    Zr
Zr    0.8802041699999997 0.11979582999999998 0.11979583    Zr
Zr    0.11979582999999996 0.11979583000000002 0.88020417    Zr
Zr    0.11979583000000003 0.8802041699999997 0.11979583    Zr
Zr    0.8802041699999997 0.11979583000000002 0.88020417    Zr
Zr    0.8802041699999998 0.8802041699999997 0.11979583    Zr
H     0.09439580999999993 0.71681257 0.09439581     H
H     0.7168125700000001 0.09439580999999998 0.09439581     H
H     0.09439580999999996 0.09439580999999998 0.09439581     H
H     0.09439580999999994 0.09439581 0.71681257     H
H     0.010806718658686463 0.5029354849144274 1.3305562149144279     H
H     -0.31849933991442775 0.8313385513413134 0.978039398487542     H
H     -0.021960601512458724 1.509121390085572 0.6815006600855721     H
H     0.3305562149144277 1.155701581512458 1.0108067186586867     H
H     0.010806718658686175 0.33055621491442755 1.1557015815124585     H
H     0.010806718658686225 1.155701581512458 0.502935484914428     H
H     0.33055621491442677 1.0108067186586869 0.5029354849144272     H
H     0.6815006600855724 0.509121390085572 0.8313385513413134     H
H     0.6815006600855712 0.9780393984875422 0.509121390085572     H
H     -0.021960601512458634 0.8313385513413143 0.5091213900855727     H
H     -0.021960601512458162 0.681500660085572 0.8313385513413135     H
H     0.33055621491442777 0.5029354849144276 1.155701581512458     H
C     -0.006212760000000258 0.60055787 0.9937872400000001     C
C     -0.3994421300000001 0.9937872399999998 1.4118676500000003     C
C     -0.0062127600000004245 1.4118676500000003 0.9937872400000001     C
C     0.41186764999999936 0.99378724 0.60055787     C
C     -0.006212760000000525 1.41186765 0.60055787     C
C     -0.0062127600000000715 0.9937872399999998 1.4118676500000003     C
C     0.4118676499999999 0.99378724 0.9937872400000001     C
C     -0.39944212999999973 1.4118676500000003 0.9937872400000001     C
C     -0.39944213000000023 0.99378724 0.9937872400000001     C
C     -0.006212759999999998 0.99378724 0.60055787     C
C     -0.006212760000000127 0.6005578699999998 1.4118676500000003     C
C     0.4118676499999998 0.60055787 0.9937872400000001     C
C     0.0038030292253867343 0.5025785279160255 1.0851299949425617     C
C     0.5025785279160249 1.0038030292253874 0.4084884479160257     C
C     -0.014716154942561753 0.509408552083974 0.9018089707746132     C
C     0.5094085520839735 0.9852838450574386 0.6034986320839744     C
C     0.0038030292253862924 1.4084884479160253 0.5025785279160259     C
C     0.0038030292253866047 1.0851299949425617 0.4084884479160261     C
C     0.5094085520839743 0.9018089707746126 0.9852838450574389     C
C     0.5025785279160262 0.40848844791602557 1.0851299949425612     C
C     -0.49742147208397475 1.0851299949425612 1.0038030292253879     C
C     -0.014716154942561444 0.9018089707746126 0.6034986320839744     C
C     -0.014716154942561795 0.6034986320839748 1.5094085520839744     C
C     0.509408552083975 0.6034986320839737 0.9018089707746126     C
C     0.0038030292253868735 0.5025785279160259 1.4084884479160258     C
C     -0.39650136791602586 0.9018089707746126 0.9852838450574389     C
C     -0.014716154942562499 1.509408552083974 0.6034986320839744     C
C     0.40848844791602545 1.0851299949425612 1.0038030292253879     C
C     0.0038030292253868948 0.40848844791602545 1.0851299949425617     C
C     0.0038030292253867486 1.0851299949425615 0.5025785279160262     C
C     0.4084884479160248 1.0038030292253879 0.5025785279160253     C
C     0.6034986320839746 0.509408552083974 0.9018089707746126     C
C     0.6034986320839734 0.9852838450574389 0.5094085520839738     C
C     -0.014716154942562181 0.9018089707746135 0.5094085520839747     C
C     -0.014716154942561377 0.6034986320839736 0.9018089707746129     C
C     0.408488447916026 0.5025785279160256 1.0851299949425612     C
C     0.30881657000000007 0.9959518499999999 0.6992797300000001     C
C     -0.004048150000000316 1.3088165699999998 0.99595185     C
C     -0.30072027000000007 0.9959518499999999 1.30881657     C
C     -0.004048150000000316 0.6992797299999999 0.99595185     C
C     0.3088165700000002 0.9959518499999999 0.99595185     C
C     0.30881657000000007 0.6992797299999999 0.99595185     C
C     -0.004048150000000554 1.3088165699999998 0.6992797300000001     C
C     -0.00404815000000011 0.9959518499999999 0.6992797300000001     C
C     -0.00404815000000011 0.6992797299999999 1.30881657     C
C     -0.3007202700000002 1.3088165699999998 0.99595185     C
C     -0.3007202700000001 0.9959518499999999 0.99595185     C
C     -0.00404815000000011 0.9959518499999999 1.30881657     C
O     0.06730802999999999 0.06730802999999999 0.79807592     O
O     0.06730802999999999 0.06730802999999999 0.06730803     O
O     0.79807592 0.06730802999999999 0.06730803     O
O     0.06730802999999999 0.79807592 0.06730803     O
O     0.07472636999999994 0.7379187399999999 0.92010767     O
O     -0.26208126000000015 1.07472637 1.26724722     O
O     -0.07989232999999991 1.2672472199999998 1.07472637     O
O     0.26724722 0.92010767 0.73791874     O
O     0.07472637000000004 1.2672472199999998 0.73791874     O
O     0.07472637000000014 0.9201076699999998 1.26724722     O
O     0.2672472200000002 1.0747263699999998 0.92010767     O
O     -0.2620812599999995 1.2672472199999998 0.92010767     O
O     -0.26208126000000015 0.9201076699999998 1.07472637     O
O     -0.07989233000000054 1.07472637 0.73791874     O
O     -0.07989233000000019 0.7379187399999999 1.26724722     O
O     0.2672472200000001 0.7379187399999999 1.07472637     O
O     0.07472637000000003 0.7379187399999999 1.26724722     O
O     -0.2620812599999995 1.0747263699999998 0.92010767     O
O     -0.07989232999999984 1.2672472199999998 0.73791874     O
O     0.26724722 0.9201076699999998 1.07472637     O
O     0.07472637000000006 1.2672472199999998 0.92010767     O
O     0.07472636999999999 0.92010767 0.73791874     O
O     0.26724722 1.07472637 0.73791874     O
O     -0.26208126000000004 1.2672472199999998 1.07472637     O
O     -0.26208125999999965 0.9201076699999998 1.26724722     O
O     -0.07989232999999997 1.07472637 1.26724722     O
O     -0.07989233000000036 0.7379187399999999 1.07472637     O
O     0.26724721999999995 0.7379187399999999 0.92010767     O
O     0.9495820799999999 0.94958208 0.15125376     O
O     0.9495820800000001 0.9495820799999999 0.94958208     O
O     0.15125375999999985 0.9495820799999999 0.94958208     O
O     0.9495820799999999 0.15125375999999996 0.94958208     O
C     0.014752448648654874 0.4983267250030303 1.1849873414418142     C
H     0.021627513723148025 0.41538075018055637 1.2476870818398869     H
H     0.08901986832361652 0.5171405132357717 1.158887909044124     H
H     -0.058333526270822174 0.5593304633491164 1.2218614034118735     H
C     -0.024012200980732666 0.5131810454444317 0.8012568699953388     C
H     -0.029849124289386228 0.5958260650986777 0.7381208981678823     H
H     0.0492652097430839 0.4515943135589479 0.765357359299736     H
H     -0.09829265710942241 0.4948985331453225 0.8263067869794936     H
C     0.49832672500302894 1.0147524486486568 0.3019334849065001     C
H     0.41538075018055487 1.02162751372315 0.3153046542564076     H
H     0.5171405132357698 1.0890198683236187 0.2349517093964877     H
H     0.5593304633491145 0.9416664737291806 0.2771416595098316     H
C     0.513181045444431 0.9759877990192687 0.7095742855409609     C
H     0.5958260650986773 0.970150875710615 0.6959021610228252     H
H     0.45159431355894697 1.0492652097430852 0.7337831173982309     H
H     0.4948985331453222 0.9017073428905781 0.7770873369846055     H
C     0.014752448648654682 1.3019334849065 0.4983267250030302     C
H     0.021627513723147838 1.3153046542564086 0.41538075018055626     H
H     0.08901986832361605 1.2349517093964886 0.517140513235772     H
H     -0.05833352627082155 1.2771416595098324 0.5593304633491162     H
C     -0.024012200980731317 0.7095742855409611 1.5131810454444317     C
H     -0.029849124289384923 0.6959021610228258 1.5958260650986773     H
H     0.04926520974308484 0.7337831173982314 1.4515943135589475     H
H     -0.09829265710942192 0.7770873369846059 1.4948985331453228     H
C     0.014752448648655355 1.1849873414418142 0.301933484906501     C
H     0.021627513723148577 1.2476870818398864 0.31530465425640936     H
H     0.08901986832361759 1.1588879090441233 0.23495170939648816     H
H     -0.05833352627082106 1.221861403411873 0.2771416595098331     H
C     -0.024012200980731657 0.8012568699953384 0.7095742855409617     C
H     -0.02984912428938575 0.7381208981678818 0.6959021610228258     H
H     0.0492652097430854 0.7653573592997355 0.7337831173982313     H
H     -0.09829265710942164 0.8263067869794928 0.7770873369846063     H
C     0.5131810454444317 0.8012568699953381 0.9759877990192688     C
H     0.5958260650986774 0.7381208981678816 0.9701508757106149     H
H     0.45159431355894797 0.7653573592997359 1.0492652097430852     H
H     0.4948985331453229 0.826306786979493 0.9017073428905783     H
C     -0.5016732749969706 1.1849873414418135 1.0147524486486565     C
H     -0.5846192498194446 1.2476870818398862 1.02162751372315     H
H     -0.4828594867642295 1.1588879090441226 1.0890198683236185     H
H     -0.4406695366508848 1.2218614034118727 0.9416664737291799     H
C     0.4983267250030302 0.3019334849065003 1.184987341441814     C
H     0.4153807501805562 0.31530465425640875 1.2476870818398864     H
H     0.5171405132357716 0.23495170939648788 1.158887909044123     H
H     0.5593304633491156 0.27714165950983194 1.2218614034118729     H
C     0.5131810454444323 0.7095742855409609 0.8012568699953379     C
H     0.5958260650986783 0.695902161022825 0.7381208981678813     H
H     0.4515943135589491 0.7337831173982307 0.7653573592997351     H
H     0.4948985331453234 0.7770873369846059 0.8263067869794927     H
