data_I
_chemical_name_common  'COOH/120/modified_COOH_120'
_cell_length_a 14.67267
_cell_length_b 14.67267
_cell_length_c 14.67267
_cell_angle_alpha 60.00000
_cell_angle_beta  60.00000
_cell_angle_gamma 60.00000
_space_group_name_H-M_alt      'P 1'


loop_
_space_group_symop_operation_xyz
  'x, y, z' 

loop_
_atom_site_label
_atom_site_fract_x
_atom_site_fract_y
_atom_site_fract_z
_atom_site_type_symbol
Zr    0.8802041699999997 0.11979583000000002 0.88020417    Zr
Zr    0.11979583000000003 0.8802041699999997 0.11979583    Zr
Zr    0.11979582999999996 0.11979583000000002 0.88020417    Zr
Zr    0.11979582999999991 0.88020417 0.88020417    Zr
Zr    0.8802041699999997 0.11979582999999998 0.11979583    Zr
Zr    0.8802041699999998 0.8802041699999997 0.11979583    Zr
H     0.9056041899999999 0.9056041900000001 0.90560419     H
H     0.9056041899999999 0.90560419 0.28318743     H
H     0.28318743 0.9056041900000001 0.90560419     H
H     0.9056041899999999 0.28318743 0.90560419     H
H     0.8442984184875417 -0.3305562149144276 0.9891932813413129     H
H     0.6694437850855722 -0.15570158151245822 1.4970645150855724     H
H     1.1686614486586866 0.3184993399144272 1.021960601512458     H
H     1.3184993399144274 0.16866144865868637 0.4908786099144279     H
H     0.4970645150855719 -0.15570158151245803 0.9891932813413133     H
H     0.6694437850855716 0.4970645150855723 0.9891932813413136     H
H     0.8442984184875414 0.49706451508557226 0.6694437850855723     H
H     1.0219606015124585 0.16866144865868654 0.31849933991442697     H
H     1.1686614486586868 0.49087860991442733 0.3184993399144273     H
H     0.3184993399144274 0.49087860991442783 1.021960601512458     H
H     0.49087860991442744 0.1686614486586867 1.0219606015124583     H
H     0.9891932813413136 -0.15570158151245794 0.6694437850855721     H
C     0.5881323499999999 0.006212759999999944 1.00621276     C
C     1.0062127600000002 -0.4118676499999999 1.39944213     C
C     1.3994421299999997 0.006212759999999944 1.00621276     C
C     1.00621276 0.39944213 0.58813235     C
C     1.0062127599999997 0.39944213 1.00621276     C
C     1.3994421299999997 -0.41186765 1.00621276     C
C     1.3994421300000002 0.006212759999999983 0.58813235     C
C     1.0062127599999997 0.006212759999999983 1.39944213     C
C     0.5881323499999996 0.006212759999999983 1.39944213     C
C     0.5881323499999996 0.39944213 1.00621276     C
C     1.0062127599999995 -0.41186765 1.00621276     C
C     1.0062127600000002 0.006212759999999983 0.58813235     C
C     0.5915115520839742 -0.08512999494256117 0.9961969707746126     C
C     0.9148700050574387 0.591511552083974 0.49742147208397414     C
C     0.3965013679160256 0.09819102922538732 1.0147161549425612     C
C     1.0981910292253863 0.39650136791602614 0.490591447916026     C
C     0.9148700050574391 0.4974214720839741 0.9961969707746124     C
C     0.4974214720839737 0.5915115520839742 0.9961969707746129     C
C     1.4974214720839742 -0.08512999494256136 0.5915115520839743     C
C     0.9961969707746128 -0.08512999494256138 0.49742147208397397     C
C     0.49059144791602544 0.09819102922538733 1.3965013679160254     C
C     0.49059144791602505 0.39650136791602586 1.0147161549425614     C
C     1.0981910292253871 -0.5094085520839744 1.014716154942561     C
C     1.0147161549425618 0.09819102922538687 0.4905914479160253     C
C     0.9148700050574388 -0.40848844791602557 0.9961969707746121     C
C     0.5915115520839741 -0.0851299949425612 1.4974214720839745     C
C     1.0981910292253874 0.3965013679160254 1.014716154942561     C
C     1.3965013679160259 0.09819102922538672 0.49059144791602577     C
C     0.497421472083974 -0.08512999494256117 0.9961969707746126     C
C     0.5915115520839738 0.4974214720839746 0.9961969707746126     C
C     0.9148700050574385 0.4974214720839743 0.5915115520839743     C
C     1.0147161549425616 0.09819102922538729 0.39650136791602525     C
C     1.0981910292253878 0.49059144791602544 0.39650136791602525     C
C     0.3965013679160253 0.4905914479160258 1.0147161549425614     C
C     0.49059144791602566 0.09819102922538732 1.0147161549425612     C
C     0.9961969707746128 -0.08512999494256125 0.5915115520839741     C
C     1.00404815 0.30072026999999996 0.6911834300000002     C
C     1.3007202699999998 0.004048149999999947 1.00404815     C
C     1.00404815 -0.30881657 1.30072027     C
C     0.6911834299999998 0.004048149999999947 1.00404815     C
C     1.30072027 0.004048149999999968 0.6911834300000002     C
C     1.00404815 0.004048149999999968 0.6911834300000002     C
C     1.00404815 0.30072027 1.00404815     C
C     0.69118343 0.30072027 1.00404815     C
C     1.00404815 -0.30881657 1.00404815     C
C     1.00404815 0.004048149999999962 1.30072027     C
C     0.69118343 0.004048149999999962 1.30072027     C
C     1.3007202699999998 -0.30881657 1.00404815     C
O     0.93269198 0.20192407999999998 0.9326919700000001     O
O     0.20192408999999992 0.93269197 0.9326919700000001     O
O     0.9326919800000001 0.93269197 0.20192408     O
O     0.93269198 0.93269197 0.9326919700000001     O
O     0.7327527800000001 0.07989232999999998 0.9252736300000001     O
O     1.0798923299999998 -0.2672472200000003 1.26208126     O
O     1.26208126 -0.07472637000000008 1.07989233     O
O     0.9252736300000001 0.26208126 0.7327527800000001     O
O     1.07989233 0.26208126 0.9252736300000001     O
O     1.2620812599999998 -0.2672472200000001 0.9252736300000001     O
O     1.26208126 0.07989232999999993 0.7327527800000001     O
O     0.9252736300000001 0.07989232999999993 1.26208126     O
O     0.7327527800000001 -0.07472637000000035 1.26208126     O
O     0.7327527799999997 0.2620812599999999 1.07989233     O
O     0.9252736300000001 -0.26724722000000006 1.07989233     O
O     1.0798923299999998 -0.07472637000000015 0.7327527800000001     O
O     1.0798923299999998 -0.2672472200000001 0.9252736300000001     O
O     0.7327527799999997 0.07989232999999993 1.26208126     O
O     0.9252736299999996 0.2620812599999999 1.07989233     O
O     1.2620812599999998 -0.07472637000000015 0.7327527800000001     O
O     1.26208126 0.07989232999999998 0.9252736300000001     O
O     0.7327527799999999 0.26208126 0.9252736300000001     O
O     1.0798923299999998 0.26208126 0.7327527800000001     O
O     1.07989233 -0.07472637000000035 1.26208126     O
O     0.9252736299999998 -0.2672472200000003 1.26208126     O
O     1.26208126 -0.26724722000000006 1.07989233     O
O     0.7327527800000001 -0.07472637000000008 1.07989233     O
O     0.9252736299999998 0.07989232999999993 0.7327527800000001     O
O     0.050417919999999894 0.8487462400000001 0.050417920000000005     O
O     0.8487462399999999 0.05041791999999999 0.050417920000000005     O
O     0.05041792000000005 0.05041791999999999 0.84874624     O
O     0.050417920000000005 0.05041791999999999 0.050417920000000005     O
C     0.6959634566130481 -0.1830164727609072 0.985463658313645     C
O     0.7023842372734181 -0.2664656838820376 0.9763134010202266     O
O     0.7837070507757504 -0.18781284250260796 0.9849377334232681     O
H     0.7724861866217904 -0.33216130657891424 0.9691098356101809     H
C     0.29251931288253163 0.19675854906822865 1.0238287263878725     C
O     0.2864990836632364 0.28078835539465385 1.0315972855938471     O
O     0.2047987410202927 0.20158828939830806 1.0242752360889416     O
H     0.2167124695467969 0.3469410532757554 1.0377131053558013     H
C     0.8169835272390927 0.6959634566130484 0.5015893578342135     C
O     0.7335343161179626 0.7023842372734181 0.5877680455883922     O
O     0.8121871574973919 0.7837070507757513 0.4191680583035882     O
H     0.6678386934210858 0.7724861866217902 0.590565284346942     H
C     1.196758549068228 0.2925193128825317 0.48689341166136724     C
O     1.2807883553946529 0.28649908366323595 0.4011152753482628     O
O     1.2015882893983068 0.20479874102029336 0.5693377334924575     O
H     1.3469410532757549 0.21671246954679682 0.3986333718216462     H
C     0.816983527239093 0.5015893578342132 0.9854636583136448     C
O     0.7335343161179627 0.587768045588392 0.9763134010202262     O
O     0.812187157497393 0.4191680583035876 0.9849377334232671     O
H     0.6678386934210865 0.5905652843469421 0.9691098356101803     H
C     1.196758549068229 -0.5131065883386343 1.0238287263878734     C
O     1.280788355394653 -0.5988847246517388 1.0315972855938484     O
O     1.2015882893983079 -0.4306622665075451 1.0242752360889429     O
H     1.3469410532757546 -0.6013666281783561 1.037713105355803     H
C     0.5015893578342129 0.6959634566130484 0.9854636583136457     C
O     0.5877680455883917 0.7023842372734184 0.9763134010202272     O
O     0.41916805830358694 0.7837070507757511 0.9849377334232693     O
H     0.5905652843469414 0.7724861866217905 0.9691098356101819     H
C     0.4868934116613663 0.2925193128825318 1.023828726387873     C
O     0.4011152753482623 0.28649908366323606 1.031597285593848     O
O     0.5693377334924562 0.2047987410202932 1.024275236088942     O
H     0.3986333718216455 0.21671246954679688 1.0377131053558022     H
C     1.5015893578342132 -0.18301647276090724 0.6959634566130486     C
O     1.5877680455883918 -0.2664656838820377 0.7023842372734185     O
O     1.4191680583035877 -0.18781284250260788 0.7837070507757513     O
H     1.5905652843469422 -0.332161306578915 0.7724861866217901     H
C     0.4868934116613665 0.19675854906822848 1.2925193128825314     C
O     0.40111527534826213 0.28078835539465347 1.2864990836632357     O
O     0.5693377334924564 0.20158828939830833 1.2047987410202936     O
H     0.39863337182164527 0.34694105327575486 1.2167124695467972     H
C     0.985463658313645 -0.1830164727609074 0.5015893578342135     C
O     0.9763134010202269 -0.26646568388203773 0.5877680455883926     O
O     0.9849377334232681 -0.18781284250260794 0.41916805830358844     O
H     0.9691098356101813 -0.33216130657891424 0.5905652843469424     H
C     1.0238287263878738 0.1967585490682281 0.4868934116613663     C
O     1.0315972855938491 0.2807883553946531 0.4011152753482617     O
O     1.0242752360889429 0.20158828939830772 0.5693377334924558     O
H     1.0377131053558029 0.3469410532757547 0.3986333718216452     H
