data_I
_chemical_name_common  'SH/0/modified_SH_0'
_cell_length_a 14.67267
_cell_length_b 14.67267
_cell_length_c 14.67267
_cell_angle_alpha 60.00000
_cell_angle_beta  60.00000
_cell_angle_gamma 60.00000
_space_group_name_H-M_alt      'P 1'


loop_
_space_group_symop_operation_xyz
  'x, y, z' 

loop_
_atom_site_label
_atom_site_fract_x
_atom_site_fract_y
_atom_site_fract_z
_atom_site_type_symbol
Zr    0.11979582999999991 0.88020417 0.88020417    Zr
Zr    0.8802041699999997 0.11979582999999998 0.11979583    Zr
Zr    0.11979582999999996 0.11979583000000002 0.88020417    Zr
Zr    0.11979583000000003 0.8802041699999997 0.11979583    Zr
Zr    0.8802041699999997 0.11979583000000002 0.88020417    Zr
Zr    0.8802041699999998 0.8802041699999997 0.11979583    Zr
H     0.09439580999999993 0.71681257 0.09439581     H
H     0.7168125700000001 0.09439580999999998 0.09439581     H
H     0.09439580999999996 0.09439580999999998 0.09439581     H
H     0.09439580999999994 0.09439581 0.71681257     H
H     0.13921644999999983 0.59277104 1.4203917700000002     H
H     -0.4072289600000001 1.13921645 0.84762074     H
H     -0.15237925999999988 1.42039177 0.5927710400000002     H
H     0.42039177000000005 0.8476207399999999 1.1392164500000002     H
H     0.1392164499999999 0.42039177 0.84762074     H
H     0.13921644999999955 0.8476207400000001 0.5927710400000002     H
H     0.42039177000000016 1.13921645 0.5927710400000001     H
H     0.5927710399999999 0.42039176999999994 1.1392164500000002     H
H     0.5927710399999998 0.84762074 0.4203917700000001     H
H     -0.15237925999999982 1.1392164500000002 0.42039177000000016     H
H     -0.15237926000000046 0.5927710399999999 1.1392164500000002     H
H     0.4203917699999999 0.59277104 0.84762074     H
C     -0.006212760000000258 0.60055787 0.9937872400000001     C
C     -0.3994421300000001 0.9937872399999998 1.4118676500000003     C
C     -0.0062127600000004245 1.4118676500000003 0.9937872400000001     C
C     0.41186764999999936 0.99378724 0.60055787     C
C     -0.006212760000000525 1.41186765 0.60055787     C
C     -0.0062127600000000715 0.9937872399999998 1.4118676500000003     C
C     0.4118676499999999 0.99378724 0.9937872400000001     C
C     -0.39944212999999973 1.4118676500000003 0.9937872400000001     C
C     -0.39944213000000023 0.99378724 0.9937872400000001     C
C     -0.006212759999999998 0.99378724 0.60055787     C
C     -0.006212760000000127 0.6005578699999998 1.4118676500000003     C
C     0.4118676499999998 0.60055787 0.9937872400000001     C
C     0.07574972000000003 0.55369624 0.91094788     C
C     0.5536962399999997 1.07574972 0.45960616000000004     C
C     -0.08905212 0.45960615999999993 1.07574972     C
C     0.4596061599999995 0.9109478799999999 0.5536962400000001     C
C     0.07574972000000008 1.4596061599999997 0.5536962400000002     C
C     0.07574971999999991 0.9109478800000002 0.45960616000000015     C
C     0.45960616000000004 1.07574972 0.91094788     C
C     0.5536962400000001 0.4596061599999998 0.91094788     C
C     -0.44630376 0.9109478799999997 1.07574972     C
C     -0.0890521200000003 1.07574972 0.5536962400000002     C
C     -0.08905212000000005 0.5536962400000001 1.4596061599999999     C
C     0.45960616000000026 0.5536962399999998 1.07574972     C
C     0.07574972000000009 0.5536962400000001 1.4596061599999999     C
C     -0.4463037600000001 1.07574972 0.91094788     C
C     -0.08905211999999971 1.4596061599999997 0.5536962400000002     C
C     0.45960616000000026 0.9109478799999997 1.07574972     C
C     0.07574971999999998 0.4596061599999998 0.91094788     C
C     0.07574971999999983 0.9109478800000002 0.5536962400000002     C
C     0.45960616000000004 1.0757497199999997 0.5536962400000001     C
C     0.5536962400000001 0.45960615999999993 1.07574972     C
C     0.5536962400000001 0.9109478799999999 0.45960616000000004     C
C     -0.08905211999999979 1.0757497200000001 0.45960616000000015     C
C     -0.08905212000000028 0.5536962399999998 1.07574972     C
C     0.45960616000000004 0.55369624 0.91094788     C
C     0.30881657000000007 0.9959518499999999 0.6992797300000001     C
C     -0.004048150000000316 1.3088165699999998 0.99595185     C
C     -0.30072027000000007 0.9959518499999999 1.30881657     C
C     -0.004048150000000316 0.6992797299999999 0.99595185     C
C     0.3088165700000002 0.9959518499999999 0.99595185     C
C     0.30881657000000007 0.6992797299999999 0.99595185     C
C     -0.004048150000000554 1.3088165699999998 0.6992797300000001     C
C     -0.00404815000000011 0.9959518499999999 0.6992797300000001     C
C     -0.00404815000000011 0.6992797299999999 1.30881657     C
C     -0.3007202700000002 1.3088165699999998 0.99595185     C
C     -0.3007202700000001 0.9959518499999999 0.99595185     C
C     -0.00404815000000011 0.9959518499999999 1.30881657     C
O     0.06730802999999999 0.06730802999999999 0.79807592     O
O     0.06730802999999999 0.06730802999999999 0.06730803     O
O     0.79807592 0.06730802999999999 0.06730803     O
O     0.06730802999999999 0.79807592 0.06730803     O
O     0.07472636999999994 0.7379187399999999 0.92010767     O
O     -0.26208126000000015 1.07472637 1.26724722     O
O     -0.07989232999999991 1.2672472199999998 1.07472637     O
O     0.26724722 0.92010767 0.73791874     O
O     0.07472637000000004 1.2672472199999998 0.73791874     O
O     0.07472637000000014 0.9201076699999998 1.26724722     O
O     0.2672472200000002 1.0747263699999998 0.92010767     O
O     -0.2620812599999995 1.2672472199999998 0.92010767     O
O     -0.26208126000000015 0.9201076699999998 1.07472637     O
O     -0.07989233000000054 1.07472637 0.73791874     O
O     -0.07989233000000019 0.7379187399999999 1.26724722     O
O     0.2672472200000001 0.7379187399999999 1.07472637     O
O     0.07472637000000003 0.7379187399999999 1.26724722     O
O     -0.2620812599999995 1.0747263699999998 0.92010767     O
O     -0.07989232999999984 1.2672472199999998 0.73791874     O
O     0.26724722 0.9201076699999998 1.07472637     O
O     0.07472637000000006 1.2672472199999998 0.92010767     O
O     0.07472636999999999 0.92010767 0.73791874     O
O     0.26724722 1.07472637 0.73791874     O
O     -0.26208126000000004 1.2672472199999998 1.07472637     O
O     -0.26208125999999965 0.9201076699999998 1.26724722     O
O     -0.07989232999999997 1.07472637 1.26724722     O
O     -0.07989233000000036 0.7379187399999999 1.07472637     O
O     0.26724721999999995 0.7379187399999999 0.92010767     O
O     0.9495820799999999 0.94958208 0.15125376     O
O     0.9495820800000001 0.9495820799999999 0.94958208     O
O     0.15125375999999985 0.9495820799999999 0.94958208     O
O     0.9495820799999999 0.15125375999999996 0.94958208     O
S     0.18303714109732347 0.6155174367588558 0.8025126386584418     S
H     0.24092546130198417 0.545447497579308 0.7440049971469943     H
S     -0.19748736134155828 0.39893278348537947 1.183037141097323     S
H     -0.2559950028530058 0.46962204397171387 1.240925461301984     H
S     0.6155174367588561 1.1830371410973224 0.3989327834853801     S
H     0.5454474975793087 1.2409254613019833 0.4696220439717144     H
S     0.3989327834853798 0.8025126386584412 0.6155174367588564     S
H     0.469622043971714 0.7440049971469935 0.5454474975793087     H
S     0.183037141097323 1.39893278348538 0.6155174367588561     S
H     0.24092546130198356 1.469622043971714 0.5454474975793081     H
S     -0.19748736134155898 0.6155174367588564 1.3989327834853804     S
H     -0.25599500285300664 0.5454474975793087 1.4696220439717145     H
S     0.18303714109732294 0.8025126386584412 0.39893278348538025     S
H     0.24092546130198358 0.744004997146994 0.4696220439717148     H
S     -0.1974873613415594 1.1830371410973226 0.6155174367588566     S
H     -0.25599500285300697 1.2409254613019833 0.5454474975793085     H
S     0.3989327834853803 1.1830371410973224 0.8025126386584412     S
H     0.4696220439717143 1.2409254613019838 0.7440049971469935     H
S     -0.38448256324114394 0.8025126386584406 1.1830371410973226     S
H     -0.45455250242069184 0.7440049971469933 1.2409254613019831     H
S     0.6155174367588555 0.3989327834853799 0.8025126386584414     S
H     0.5454474975793075 0.4696220439717143 0.744004997146994     H
S     0.3989327834853808 0.615517436758856 1.1830371410973226     S
H     0.4696220439717156 0.5454474975793079 1.2409254613019831     H
