data_I
_chemical_name_common  'COOH/60/modified_COOH_60'
_cell_length_a 14.67267
_cell_length_b 14.67267
_cell_length_c 14.67267
_cell_angle_alpha 60.00000
_cell_angle_beta  60.00000
_cell_angle_gamma 60.00000
_space_group_name_H-M_alt      'P 1'


loop_
_space_group_symop_operation_xyz
  'x, y, z' 

loop_
_atom_site_label
_atom_site_fract_x
_atom_site_fract_y
_atom_site_fract_z
_atom_site_type_symbol
Zr    0.8802041699999997 0.11979583000000002 0.88020417    Zr
Zr    0.11979583000000003 0.8802041699999997 0.11979583    Zr
Zr    0.11979582999999996 0.11979583000000002 0.88020417    Zr
Zr    0.11979582999999991 0.88020417 0.88020417    Zr
Zr    0.8802041699999997 0.11979582999999998 0.11979583    Zr
Zr    0.8802041699999998 0.8802041699999997 0.11979583    Zr
H     0.9056041899999999 0.9056041900000001 0.90560419     H
H     0.9056041899999999 0.90560419 0.28318743     H
H     0.28318743 0.9056041900000001 0.90560419     H
H     0.9056041899999999 0.28318743 0.90560419     H
H     0.9904649184875419 -0.3309248599144277 0.843764071341313     H
H     0.6690751400855717 -0.00953508151245807 1.4966958700855724     H
H     1.0232322386586858 0.31813069491442747 1.1681271015124584     H
H     1.3181306949144274 0.02323223865868656 0.49050996491442767     H
H     0.4966958700855719 -0.009535081512457967 0.8437640713413134     H
H     0.6690751400855721 0.49669587008557214 0.8437640713413134     H
H     0.990464918487542 0.4966958700855721 0.6690751400855723     H
H     1.1681271015124584 0.023232238658686077 0.31813069491442747     H
H     1.0232322386586865 0.4905099649144275 0.3181306949144273     H
H     0.31813069491442775 0.4905099649144275 1.1681271015124581     H
H     0.49050996491442755 0.023232238658686316 1.1681271015124581     H
H     0.8437640713413135 -0.009535081512458259 0.6690751400855723     H
C     0.5881323499999999 0.006212759999999944 1.00621276     C
C     1.0062127600000002 -0.4118676499999999 1.39944213     C
C     1.3994421299999997 0.006212759999999944 1.00621276     C
C     1.00621276 0.39944213 0.58813235     C
C     1.0062127599999997 0.39944213 1.00621276     C
C     1.3994421299999997 -0.41186765 1.00621276     C
C     1.3994421300000002 0.006212759999999983 0.58813235     C
C     1.0062127599999997 0.006212759999999983 1.39944213     C
C     0.5881323499999996 0.006212759999999983 1.39944213     C
C     0.5881323499999996 0.39944213 1.00621276     C
C     1.0062127599999995 -0.41186765 1.00621276     C
C     1.0062127600000002 0.006212759999999983 0.58813235     C
C     0.5910731120839741 -0.0022906349425612306 0.9142344907746129     C
C     0.9977093650574387 0.5910731120839744 0.49698303208397415     C
C     0.39606292791602543 0.016228549225387308 1.0975555149425613     C
C     1.0162285492253873 0.3960629279160261 0.49015300791602606     C
C     0.9977093650574385 0.4969830320839742 0.9142344907746129     C
C     0.4969830320839741 0.5910731120839742 0.9142344907746129     C
C     1.496983032083974 -0.0022906349425614887 0.5910731120839744     C
C     0.9142344907746129 -0.0022906349425614904 0.4969830320839744     C
C     0.4901530079160256 0.016228549225387096 1.3960629279160255     C
C     0.49015300791602573 0.39606292791602565 1.0975555149425613     C
C     1.016228549225387 -0.5098469920839744 1.0975555149425615     C
C     1.0975555149425613 0.01622854922538696 0.4901530079160257     C
C     0.9977093650574386 -0.40892688791602577 0.9142344907746126     C
C     0.5910731120839737 -0.00229063494256124 1.496983032083974     C
C     1.016228549225387 0.3960629279160253 1.0975555149425615     C
C     1.3960629279160257 0.016228549225387075 0.4901530079160258     C
C     0.4969830320839739 -0.0022906349425612306 0.9142344907746129     C
C     0.5910731120839741 0.4969830320839744 0.9142344907746126     C
C     0.9977093650574382 0.49698303208397465 0.5910731120839744     C
C     1.0975555149425615 0.016228549225386957 0.3960629279160257     C
C     1.0162285492253873 0.49015300791602556 0.3960629279160254     C
C     0.39606292791602565 0.49015300791602573 1.0975555149425613     C
C     0.4901530079160255 0.016228549225387308 1.0975555149425613     C
C     0.9142344907746129 -0.002290634942561325 0.5910731120839743     C
C     1.00404815 0.30072026999999996 0.6911834300000002     C
C     1.3007202699999998 0.004048149999999947 1.00404815     C
C     1.00404815 -0.30881657 1.30072027     C
C     0.6911834299999998 0.004048149999999947 1.00404815     C
C     1.30072027 0.004048149999999968 0.6911834300000002     C
C     1.00404815 0.004048149999999968 0.6911834300000002     C
C     1.00404815 0.30072027 1.00404815     C
C     0.69118343 0.30072027 1.00404815     C
C     1.00404815 -0.30881657 1.00404815     C
C     1.00404815 0.004048149999999962 1.30072027     C
C     0.69118343 0.004048149999999962 1.30072027     C
C     1.3007202699999998 -0.30881657 1.00404815     C
O     0.93269198 0.20192407999999998 0.9326919700000001     O
O     0.20192408999999992 0.93269197 0.9326919700000001     O
O     0.9326919800000001 0.93269197 0.20192408     O
O     0.93269198 0.93269197 0.9326919700000001     O
O     0.7327527800000001 0.07989232999999998 0.9252736300000001     O
O     1.0798923299999998 -0.2672472200000003 1.26208126     O
O     1.26208126 -0.07472637000000008 1.07989233     O
O     0.9252736300000001 0.26208126 0.7327527800000001     O
O     1.07989233 0.26208126 0.9252736300000001     O
O     1.2620812599999998 -0.2672472200000001 0.9252736300000001     O
O     1.26208126 0.07989232999999993 0.7327527800000001     O
O     0.9252736300000001 0.07989232999999993 1.26208126     O
O     0.7327527800000001 -0.07472637000000035 1.26208126     O
O     0.7327527799999997 0.2620812599999999 1.07989233     O
O     0.9252736300000001 -0.26724722000000006 1.07989233     O
O     1.0798923299999998 -0.07472637000000015 0.7327527800000001     O
O     1.0798923299999998 -0.2672472200000001 0.9252736300000001     O
O     0.7327527799999997 0.07989232999999993 1.26208126     O
O     0.9252736299999996 0.2620812599999999 1.07989233     O
O     1.2620812599999998 -0.07472637000000015 0.7327527800000001     O
O     1.26208126 0.07989232999999998 0.9252736300000001     O
O     0.7327527799999999 0.26208126 0.9252736300000001     O
O     1.0798923299999998 0.26208126 0.7327527800000001     O
O     1.07989233 -0.07472637000000035 1.26208126     O
O     0.9252736299999998 -0.2672472200000003 1.26208126     O
O     1.26208126 -0.26724722000000006 1.07989233     O
O     0.7327527800000001 -0.07472637000000008 1.07989233     O
O     0.9252736299999998 0.07989232999999993 0.7327527800000001     O
O     0.050417919999999894 0.8487462400000001 0.050417920000000005     O
O     0.8487462399999999 0.05041791999999999 0.050417920000000005     O
O     0.05041792000000005 0.05041791999999999 0.84874624     O
O     0.050417920000000005 0.05041791999999999 0.050417920000000005     O
C     0.6950551671174678 -0.011403206387872771 0.8156669709317712     C
O     0.7010753963367632 -0.01917176559384758 0.7316371646053463     O
O     0.7827757389797053 -0.011849716088941843 0.8108372306016918     O
H     0.7708620104532022 -0.025287585355801345 0.6654844667242443     H
C     0.2916110233869511 0.026961861686355195 1.195441992760907     C
O     0.2851902427265813 0.036112118979773664 1.2788912038820375     O
O     0.20386742922424742 0.02748778657673209 1.200238362502608     O
H     0.21508829337820892 0.04331568438981889 1.3445868265789138     H
C     0.988596793612127 0.6950551671174685 0.5006810683386332     C
O     0.9808282344061524 0.7010753963367637 0.5864592046517375     O
O     0.9881502839110581 0.7827757389797064 0.4182367465075432     O
H     0.9747124146441981 0.7708620104532027 0.5889411081783543     H
C     1.0269618616863545 0.2916110233869517 0.4859851221657871     C
O     1.0361121189797728 0.28519024272658117 0.39980643441160846     O
O     1.0274877865767313 0.20386742922424883 0.5684064216964128     O
H     1.043315684389818 0.21508829337820942 0.3970091956530588     H
C     0.9885967936121275 0.5006810683386325 0.8156669709317718     C
O     0.9808282344061524 0.5864592046517368 0.7316371646053467     O
O     0.9881502839110592 0.41823674650754233 0.810837230601692     O
H     0.9747124146441992 0.5889411081783539 0.6654844667242443     H
C     1.0269618616863538 -0.5140148778342142 1.1954419927609083     C
O     1.036112118979772 -0.6001935655883929 1.2788912038820384     O
O     1.0274877865767302 -0.43159357830358924 1.2002383625026092     O
H     1.0433156843898166 -0.6029908043469431 1.3445868265789154     H
C     0.5006810683386335 0.6950551671174683 0.8156669709317713     C
O     0.5864592046517376 0.7010753963367639 0.7316371646053469     O
O     0.4182367465075429 0.7827757389797068 0.8108372306016929     O
H     0.5889411081783543 0.7708620104532028 0.665484466724245     H
C     0.4859851221657863 0.2916110233869515 1.1954419927609072     C
O     0.3998064344116077 0.2851902427265812 1.2788912038820381     O
O     0.5684064216964119 0.20386742922424814 1.2002383625026078     O
H     0.3970091956530582 0.21508829337820928 1.3445868265789145     H
C     1.5006810683386334 -0.011403206387873009 0.6950551671174684     C
O     1.5864592046517374 -0.01917176559384801 0.7010753963367637     O
O     1.418236746507543 -0.011849716088942351 0.7827757389797066     O
H     1.5889411081783547 -0.025287585355802458 0.7708620104532028     H
C     0.4859851221657863 0.026961861686354782 1.2916110233869513     C
O     0.39980643441160785 0.03611211897977265 1.2851902427265811     O
O     0.5684064216964113 0.02748778657673222 1.2038674292242484     O
H     0.39700919565305803 0.04331568438981762 1.2150882933782094     H
C     0.8156669709317711 -0.011403206387872785 0.5006810683386335     C
O     0.7316371646053462 -0.01917176559384778 0.586459204651738     O
O     0.8108372306016918 -0.011849716088941887 0.41823674650754383     O
H     0.6654844667242444 -0.02528758535580186 0.5889411081783549     H
C     1.1954419927609072 0.026961861686353904 0.48598512216578665     C
O     1.2788912038820381 0.0361121189797717 0.39980643441160785     O
O     1.2002383625026087 0.02748778657673071 0.5684064216964115     O
H     1.3445868265789147 0.04331568438981724 0.39700919565305814     H
