data_I
_chemical_name_common  'CF3/60/modified_CF3_60'
_cell_length_a 14.67267
_cell_length_b 14.67267
_cell_length_c 14.67267
_cell_angle_alpha 60.00000
_cell_angle_beta  60.00000
_cell_angle_gamma 60.00000
_space_group_name_H-M_alt      'P 1'


loop_
_space_group_symop_operation_xyz
  'x, y, z' 

loop_
_atom_site_label
_atom_site_fract_x
_atom_site_fract_y
_atom_site_fract_z
_atom_site_type_symbol
Zr    0.11979582999999991 0.88020417 0.88020417    Zr
Zr    0.8802041699999997 0.11979582999999998 0.11979583    Zr
Zr    0.11979582999999996 0.11979583000000002 0.88020417    Zr
Zr    0.11979583000000003 0.8802041699999997 0.11979583    Zr
Zr    0.8802041699999997 0.11979583000000002 0.88020417    Zr
Zr    0.8802041699999998 0.8802041699999997 0.11979583    Zr
H     0.09439580999999993 0.71681257 0.09439581     H
H     0.7168125700000001 0.09439580999999998 0.09439581     H
H     0.09439580999999996 0.09439580999999998 0.09439581     H
H     0.09439580999999994 0.09439581 0.71681257     H
H     0.15623592865868616 0.5033041299144277 1.3309248599144279     H
H     -0.31813069491442775 0.9767677613413138 0.8318728984875416     H
H     -0.16812710151245774 1.5094900350855718 0.681869305085572     H
H     0.33092485991442766 1.0095350815124582 1.1562359286586865     H
H     0.15623592865868605 0.33092485991442777 1.0095350815124584     H
H     0.15623592865868635 1.0095350815124582 0.5033041299144277     H
H     0.33092485991442744 1.1562359286586867 0.5033041299144275     H
H     0.6818693050855721 0.5094900350855724 0.9767677613413134     H
H     0.681869305085572 0.831872898487542 0.5094900350855719     H
H     -0.16812710151245808 0.9767677613413142 0.5094900350855723     H
H     -0.16812710151245844 0.6818693050855725 0.9767677613413134     H
H     0.3309248599144278 0.5033041299144279 1.0095350815124577     H
C     -0.006212760000000258 0.60055787 0.9937872400000001     C
C     -0.3994421300000001 0.9937872399999998 1.4118676500000003     C
C     -0.0062127600000004245 1.4118676500000003 0.9937872400000001     C
C     0.41186764999999936 0.99378724 0.60055787     C
C     -0.006212760000000525 1.41186765 0.60055787     C
C     -0.0062127600000000715 0.9937872399999998 1.4118676500000003     C
C     0.4118676499999999 0.99378724 0.9937872400000001     C
C     -0.39944212999999973 1.4118676500000003 0.9937872400000001     C
C     -0.39944213000000023 0.99378724 0.9937872400000001     C
C     -0.006212759999999998 0.99378724 0.60055787     C
C     -0.006212760000000127 0.6005578699999998 1.4118676500000003     C
C     0.4118676499999998 0.60055787 0.9937872400000001     C
C     0.08576550922538692 0.5030169679160257 1.0022906349425615     C
C     0.5030169679160252 1.0857655092253873 0.40892688791602566     C
C     -0.09755551494256157 0.5098469920839742 0.983771450774613     C
C     0.5098469920839737 0.9024444850574386 0.6039370720839744     C
C     0.08576550922538709 1.4089268879160253 0.5030169679160253     C
C     0.08576550922538702 1.0022906349425618 0.40892688791602577     C
C     0.5098469920839742 0.9837714507746129 0.9024444850574388     C
C     0.5030169679160259 0.40892688791602566 1.0022906349425613     C
C     -0.49698303208397443 1.0022906349425609 1.0857655092253877     C
C     -0.09755551494256148 0.9837714507746128 0.6039370720839744     C
C     -0.097555514942562 0.6039370720839745 1.509846992083974     C
C     0.5098469920839744 0.6039370720839741 0.9837714507746126     C
C     0.08576550922538699 0.5030169679160258 1.4089268879160255     C
C     -0.39606292791602593 0.9837714507746129 0.9024444850574388     C
C     -0.0975555149425614 1.5098469920839739 0.603937072083974     C
C     0.40892688791602577 1.0022906349425609 1.0857655092253877     C
C     0.08576550922538692 0.40892688791602555 1.0022906349425615     C
C     0.08576550922538688 1.0022906349425615 0.5030169679160258     C
C     0.40892688791602533 1.0857655092253873 0.5030169679160256     C
C     0.6039370720839745 0.5098469920839743 0.9837714507746126     C
C     0.603937072083974 0.9024444850574388 0.5098469920839741     C
C     -0.09755551494256151 0.9837714507746134 0.5098469920839743     C
C     -0.09755551494256158 0.6039370720839741 0.9837714507746127     C
C     0.40892688791602577 0.5030169679160258 1.002290634942561     C
C     0.30881657000000007 0.9959518499999999 0.6992797300000001     C
C     -0.004048150000000316 1.3088165699999998 0.99595185     C
C     -0.30072027000000007 0.9959518499999999 1.30881657     C
C     -0.004048150000000316 0.6992797299999999 0.99595185     C
C     0.3088165700000002 0.9959518499999999 0.99595185     C
C     0.30881657000000007 0.6992797299999999 0.99595185     C
C     -0.004048150000000554 1.3088165699999998 0.6992797300000001     C
C     -0.00404815000000011 0.9959518499999999 0.6992797300000001     C
C     -0.00404815000000011 0.6992797299999999 1.30881657     C
C     -0.3007202700000002 1.3088165699999998 0.99595185     C
C     -0.3007202700000001 0.9959518499999999 0.99595185     C
C     -0.00404815000000011 0.9959518499999999 1.30881657     C
O     0.06730802999999999 0.06730802999999999 0.79807592     O
O     0.06730802999999999 0.06730802999999999 0.06730803     O
O     0.79807592 0.06730802999999999 0.06730803     O
O     0.06730802999999999 0.79807592 0.06730803     O
O     0.07472636999999994 0.7379187399999999 0.92010767     O
O     -0.26208126000000015 1.07472637 1.26724722     O
O     -0.07989232999999991 1.2672472199999998 1.07472637     O
O     0.26724722 0.92010767 0.73791874     O
O     0.07472637000000004 1.2672472199999998 0.73791874     O
O     0.07472637000000014 0.9201076699999998 1.26724722     O
O     0.2672472200000002 1.0747263699999998 0.92010767     O
O     -0.2620812599999995 1.2672472199999998 0.92010767     O
O     -0.26208126000000015 0.9201076699999998 1.07472637     O
O     -0.07989233000000054 1.07472637 0.73791874     O
O     -0.07989233000000019 0.7379187399999999 1.26724722     O
O     0.2672472200000001 0.7379187399999999 1.07472637     O
O     0.07472637000000003 0.7379187399999999 1.26724722     O
O     -0.2620812599999995 1.0747263699999998 0.92010767     O
O     -0.07989232999999984 1.2672472199999998 0.73791874     O
O     0.26724722 0.9201076699999998 1.07472637     O
O     0.07472637000000006 1.2672472199999998 0.92010767     O
O     0.07472636999999999 0.92010767 0.73791874     O
O     0.26724722 1.07472637 0.73791874     O
O     -0.26208126000000004 1.2672472199999998 1.07472637     O
O     -0.26208125999999965 0.9201076699999998 1.26724722     O
O     -0.07989232999999997 1.07472637 1.26724722     O
O     -0.07989233000000036 0.7379187399999999 1.07472637     O
O     0.26724721999999995 0.7379187399999999 0.92010767     O
O     0.9495820799999999 0.94958208 0.15125376     O
O     0.9495820800000001 0.9495820799999999 0.94958208     O
O     0.15125375999999985 0.9495820799999999 0.94958208     O
O     0.9495820799999999 0.15125375999999996 0.94958208     O
C     0.18565608302584974 0.49926929359083444 1.0115255227831128     C
F     0.26672395444508673 0.39739985584691967 1.019020250979633     F
F     0.2331932148450399 0.5749632066627608 0.9216227910000974     F
F     0.1581585259253499 0.5216514895676276 1.1032809141100532     F
C     -0.19675590521484548 0.5140708226093843 0.9728940670054453     C
F     -0.27726364660990266 0.6163266929079053 0.9640663436755338     F
F     -0.16794320570166543 0.4910505015463048 0.8810997834383981     F
F     -0.24546971808988913 0.4391105588297733 1.062506181259685     F
C     0.4992692935908339 1.1856560830258507 0.30354910060020307     C
F     0.3973998558469194 1.2667239544450877 0.31685593872836115     F
F     0.5749632066627602 1.2331932148450406 0.2702207874921034     F
F     0.5216514895676267 1.1581585259253522 0.21690907039696902     F
C     0.514070822609384 0.8032440947851555 0.7097910156000159     C
F     0.6163266929079054 0.7227363533900979 0.6968706100264641     F
F     0.4910505015463041 0.8320567942983356 0.7957929207169628     F
F     0.4391105588297731 0.7545302819101114 0.7438529780004313     F
C     0.18565608302584974 1.303549100600203 0.4992692935908344     C
F     0.26672395444508673 1.3168559387283612 0.39739985584691934     F
F     0.23319321484503924 1.2702207874921028 0.5749632066627606     F
F     0.15815852592535182 1.216909070396969 0.5216514895676266     F
C     -0.19675590521484515 0.709791015600016 1.5140708226093849     C
F     -0.2772636466099025 0.6968706100264644 1.6163266929079059     F
F     -0.16794320570166535 0.7957929207169632 1.491050501546305     F
F     -0.24546971808988888 0.7438529780004318 1.4391105588297735     F
C     0.18565608302585057 1.0115255227831128 0.30354910060020307     C
F     0.2667239544450871 1.019020250979632 0.3168559387283617     F
F     0.23319321484504024 0.9216227910000968 0.2702207874921028     F
F     0.15815852592535104 1.1032809141100535 0.21690907039696977     F
C     -0.19675590521484493 0.9728940670054441 0.7097910156000159     C
F     -0.27726364660990227 0.9640663436755322 0.6968706100264641     F
F     -0.16794320570166443 0.8810997834383971 0.7957929207169624     F
F     -0.24546971808988893 1.0625061812596834 0.7438529780004323     F
C     0.5140708226093844 0.9728940670054445 0.8032440947851551     C
F     0.6163266929079054 0.9640663436755326 0.7227363533900978     F
F     0.4910505015463048 0.8810997834383972 0.8320567942983353     F
F     0.43911055882977357 1.0625061812596843 0.7545302819101108     F
C     -0.500730706409166 1.0115255227831115 1.1856560830258511     C
F     -0.6026001441530806 1.019020250979631 1.2667239544450877     F
F     -0.4250367933372393 0.9216227910000953 1.2331932148450404     F
F     -0.4783485104323731 1.1032809141100517 1.1581585259253522     F
C     0.4992692935908338 0.30354910060020307 1.0115255227831126     C
F     0.39739985584691906 0.3168559387283615 1.019020250979632     F
F     0.5749632066627608 0.2702207874921028 0.921622791000096     F
F     0.521651489567627 0.2169090703969696 1.1032809141100524     F
C     0.5140708226093853 0.7097910156000156 0.9728940670054445     C
F     0.6163266929079066 0.6968706100264636 0.9640663436755318     F
F     0.4910505015463054 0.7957929207169625 0.8810997834383969     F
F     0.43911055882977423 0.7438529780004314 1.0625061812596839     F
