data_I
_chemical_name_common  'CN/90/modified_CN_90'
_cell_length_a 14.67267
_cell_length_b 14.67267
_cell_length_c 14.67267
_cell_angle_alpha 60.00000
_cell_angle_beta  60.00000
_cell_angle_gamma 60.00000
_space_group_name_H-M_alt      'P 1'


loop_
_space_group_symop_operation_xyz
  'x, y, z' 

loop_
_atom_site_label
_atom_site_fract_x
_atom_site_fract_y
_atom_site_fract_z
_atom_site_type_symbol
Zr    0.11979582999999991 0.88020417 0.88020417    Zr
Zr    0.8802041699999997 0.11979582999999998 0.11979583    Zr
Zr    0.11979582999999996 0.11979583000000002 0.88020417    Zr
Zr    0.11979583000000003 0.8802041699999997 0.11979583    Zr
Zr    0.8802041699999997 0.11979583000000002 0.88020417    Zr
Zr    0.8802041699999998 0.8802041699999997 0.11979583    Zr
H     0.09439580999999993 0.71681257 0.09439581     H
H     0.7168125700000001 0.09439580999999998 0.09439581     H
H     0.09439580999999996 0.09439580999999998 0.09439581     H
H     0.09439580999999994 0.09439581 0.71681257     H
H     -0.10982875471165444 0.6954970469529529 1.523117776952953     H
H     -0.30450295304704705 0.8901712452883458 0.8912139308057482     H
H     0.0963605491942508 1.3169284730470474 0.4893077430470474     H
H     0.316928473047047 1.0963605491942519 1.0974032347116542     H
H     0.09740323471165382 0.3169284730470469 1.0963605491942523     H
H     0.09740323471165394 1.0963605491942519 0.48930774304704716     H
H     0.3169284730470466 1.0974032347116545 0.4893077430470468     H
H     0.4893077430470468 0.3169284730470469 1.0974032347116542     H
H     0.6954970469529524 0.8912139308057483 0.5231177769529527     H
H     -0.10878606919425242 0.8901712452883466 0.5231177769529531     H
H     -0.10878606919425203 0.695497046952953 0.8901712452883457     H
H     0.5231177769529528 0.6954970469529531 0.891213930805748     H
C     -0.006212760000000258 0.60055787 0.9937872400000001     C
C     -0.3994421300000001 0.9937872399999998 1.4118676500000003     C
C     -0.0062127600000004245 1.4118676500000003 0.9937872400000001     C
C     0.41186764999999936 0.99378724 0.60055787     C
C     -0.006212760000000525 1.41186765 0.60055787     C
C     -0.0062127600000000715 0.9937872399999998 1.4118676500000003     C
C     0.4118676499999999 0.99378724 0.9937872400000001     C
C     -0.39944212999999973 1.4118676500000003 0.9937872400000001     C
C     -0.39944213000000023 0.99378724 0.9937872400000001     C
C     -0.006212759999999998 0.99378724 0.60055787     C
C     -0.006212760000000127 0.6005578699999998 1.4118676500000003     C
C     0.4118676499999998 0.60055787 0.9937872400000001     C
C     0.052673537102296754 0.4949915506919897 1.0514334415137236     C
C     0.49499155069198925 1.0526735371022973 0.4009014706919895     C
C     -0.06385896151372354 0.5174339693080099 0.9349009428977033     C
C     0.5174339693080098 0.9361410384862765 0.6115240493080102     C
C     -0.06509905710229784 1.51743396930801 0.611524049308011     C
C     0.05267353710229683 1.0514334415137236 0.4009014706919901     C
C     0.5174339693080102 0.9349009428977028 0.9361410384862768     C
C     0.6115240493080106 0.5174339693080101 0.9361410384862764     C
C     -0.5050084493080104 1.0514334415137228 1.0526735371022975     C
C     -0.06385896151372326 0.9349009428977029 0.6115240493080104     C
C     0.051433441513723324 0.49499155069198975 1.4009014706919896     C
C     0.4009014706919903 0.4949915506919896 1.0526735371022968     C
C     -0.06509905710229712 0.6115240493080101 1.5174339693080103     C
C     -0.38847595069198987 0.9349009428977028 0.9361410384862768     C
C     0.051433441513722415 1.4009014706919898 0.4949915506919906     C
C     0.40090147069198984 1.0514334415137228 1.0526735371022975     C
C     0.0526735371022967 0.4009014706919897 1.0514334415137236     C
C     0.05267353710229681 1.0514334415137236 0.4949915506919902     C
C     0.40090147069198934 1.0526735371022973 0.49499155069198975     C
C     0.4949915506919899 0.4009014706919897 1.0526735371022968     C
C     0.6115240493080097 0.936141038486277 0.5174339693080097     C
C     -0.06385896151372367 0.9349009428977033 0.5174339693080106     C
C     -0.06385896151372328 0.6115240493080099 0.9349009428977029     C
C     0.5174339693080106 0.61152404930801 0.9361410384862766     C
C     0.30881657000000007 0.9959518499999999 0.6992797300000001     C
C     -0.004048150000000316 1.3088165699999998 0.99595185     C
C     -0.30072027000000007 0.9959518499999999 1.30881657     C
C     -0.004048150000000316 0.6992797299999999 0.99595185     C
C     0.3088165700000002 0.9959518499999999 0.99595185     C
C     0.30881657000000007 0.6992797299999999 0.99595185     C
C     -0.004048150000000554 1.3088165699999998 0.6992797300000001     C
C     -0.00404815000000011 0.9959518499999999 0.6992797300000001     C
C     -0.00404815000000011 0.6992797299999999 1.30881657     C
C     -0.3007202700000002 1.3088165699999998 0.99595185     C
C     -0.3007202700000001 0.9959518499999999 0.99595185     C
C     -0.00404815000000011 0.9959518499999999 1.30881657     C
O     0.06730802999999999 0.06730802999999999 0.79807592     O
O     0.06730802999999999 0.06730802999999999 0.06730803     O
O     0.79807592 0.06730802999999999 0.06730803     O
O     0.06730802999999999 0.79807592 0.06730803     O
O     0.07472636999999994 0.7379187399999999 0.92010767     O
O     -0.26208126000000015 1.07472637 1.26724722     O
O     -0.07989232999999991 1.2672472199999998 1.07472637     O
O     0.26724722 0.92010767 0.73791874     O
O     0.07472637000000004 1.2672472199999998 0.73791874     O
O     0.07472637000000014 0.9201076699999998 1.26724722     O
O     0.2672472200000002 1.0747263699999998 0.92010767     O
O     -0.2620812599999995 1.2672472199999998 0.92010767     O
O     -0.26208126000000015 0.9201076699999998 1.07472637     O
O     -0.07989233000000054 1.07472637 0.73791874     O
O     -0.07989233000000019 0.7379187399999999 1.26724722     O
O     0.2672472200000001 0.7379187399999999 1.07472637     O
O     0.07472637000000003 0.7379187399999999 1.26724722     O
O     -0.2620812599999995 1.0747263699999998 0.92010767     O
O     -0.07989232999999984 1.2672472199999998 0.73791874     O
O     0.26724722 0.9201076699999998 1.07472637     O
O     0.07472637000000006 1.2672472199999998 0.92010767     O
O     0.07472636999999999 0.92010767 0.73791874     O
O     0.26724722 1.07472637 0.73791874     O
O     -0.26208126000000004 1.2672472199999998 1.07472637     O
O     -0.26208125999999965 0.9201076699999998 1.26724722     O
O     -0.07989232999999997 1.07472637 1.26724722     O
O     -0.07989233000000036 0.7379187399999999 1.07472637     O
O     0.26724721999999995 0.7379187399999999 0.92010767     O
O     0.9495820799999999 0.94958208 0.15125376     O
O     0.9495820800000001 0.9495820799999999 0.94958208     O
O     0.15125375999999985 0.9495820799999999 0.94958208     O
O     0.9495820799999999 0.15125375999999996 0.94958208     O
C     0.11366078913765595 0.48310586024214136 1.111136353627406     C
N     0.16321293141638504 0.47344873675163945 1.1596449697197728     N
C     -0.12356187362740563 0.5293196597578588 0.8739136908623439     C
N     -0.17207048971977223 0.5389767832483611 0.8243615485836144     N
C     0.4831058602421405 1.1136607891376578 0.2920969969927964     C
N     0.4734487367516381 1.1632129314163873 0.20369336211220274     N
C     0.5293196597578582 0.8764381263725948 0.7203285230072028     C
N     0.5389767832483604 0.8279295102802291 0.8087321578877967     N
C     -0.12608630913765775 1.5293196597578596 0.7203285230072036     C
N     -0.17563845141638723 1.5389767832483614 0.8087321578877976     N
C     0.11113635362740464 0.4831058602421405 1.2920969969927971     C
N     0.15964496971977113 0.4734487367516387 1.2036933621122026     N
C     0.11366078913765632 1.1111363536274057 0.2920969969927976     C
N     0.1632129314163861 1.1596449697197726 0.20369336211220362     N
C     -0.12356187362740469 0.8739136908623425 0.7203285230072031     C
N     -0.17207048971977096 0.8243615485836123 0.808732157887797     N
C     0.5293196597578589 0.8739136908623429 0.8764381263725954     C
N     0.5389767832483611 0.824361548583613 0.8279295102802292     N
C     -0.5168941397578596 1.1111363536274046 1.1136607891376573     C
N     -0.5265512632483618 1.1596449697197706 1.1632129314163873     N
C     0.7203285230072027 0.5293196597578589 0.8764381263725943     C
N     0.8087321578877967 0.5389767832483615 0.8279295102802279     N
C     0.2920969969927973 0.48310586024214025 1.1136607891376573     C
N     0.20369336211220343 0.47344873675163773 1.1632129314163875     N
