data_I
_chemical_name_common  '/30/modified_30'
_cell_length_a 14.67267
_cell_length_b 14.67267
_cell_length_c 14.67267
_cell_angle_alpha 60.00000
_cell_angle_beta  60.00000
_cell_angle_gamma 60.00000
_space_group_name_H-M_alt      'P 1'


loop_
_space_group_symop_operation_xyz
  'x, y, z' 

loop_
_atom_site_label
_atom_site_fract_x
_atom_site_fract_y
_atom_site_fract_z
_atom_site_type_symbol
Zr    0.11979583 0.88020417 0.88020417    Zr
Zr    0.88020417 0.11979583 0.11979583    Zr
Zr    0.11979583 0.11979583 0.88020417    Zr
Zr    0.11979583 0.88020417 0.11979583    Zr
Zr    0.88020417 0.11979583 0.88020417    Zr
Zr    0.88020417 0.88020417 0.11979583    Zr
H     0.09439581 0.71681257 0.09439581     H
H     0.71681257 0.09439581 0.09439581     H
H     0.09439581 0.09439581 0.09439581     H
H     0.09439581 0.09439581 0.71681257     H
H     0.171540627668129 0.5411743249585016 0.918489992414868     H
H     0.5411743249585016 1.171540627668129 0.36879505495850146     H
H     -0.18408331677938397 0.4718897069114545 1.067924632956475     H
H     0.4718897069114543 0.8159166832206158 0.6442689769114546     H
H     0.17154062766812894 1.3687950549585017 0.5411743249585016     H
H     0.1715406276681287 0.9184899924148678 0.36879505495850196     H
H     0.47188970691145454 1.067924632956475 0.8159166832206158     H
H     0.5411743249585018 0.3687950549585017 0.9184899924148676     H
H     -0.45882567504149846 0.9184899924148676 1.1715406276681288     H
H     -0.1840833167793843 1.0679246329564749 0.6442689769114549     H
H     -0.18408331677938422 0.6442689769114545 1.4718897069114547     H
H     0.47188970691145465 0.6442689769114546 1.0679246329564749     H
H     0.17154062766812905 0.5411743249585014 1.3687950549585017     H
H     -0.35573102308854554 1.067924632956475 0.8159166832206158     H
H     -0.184083316779384 1.4718897069114547 0.6442689769114545     H
H     0.36879505495850184 0.9184899924148676 1.1715406276681288     H
H     0.1715406276681289 0.36879505495850146 0.918489992414868     H
H     0.17154062766812878 0.9184899924148673 0.5411743249585019     H
H     0.368795054958502 1.171540627668129 0.5411743249585016     H
H     0.6442689769114548 0.47188970691145454 1.0679246329564749     H
H     0.6442689769114547 0.8159166832206158 0.47188970691145443     H
H     -0.18408331677938422 1.0679246329564749 0.4718897069114549     H
H     -0.1840833167793843 0.6442689769114546 1.0679246329564749     H
H     0.36879505495850173 0.5411743249585015 0.9184899924148677     H
C     -0.006212760000000258 0.60055787 0.9937872400000001     C
C     -0.3994421300000001 0.9937872399999998 1.4118676500000003     C
C     -0.0062127600000004245 1.4118676500000003 0.9937872400000001     C
C     0.4118676499999996 0.99378724 0.60055787     C
C     -0.006212760000000303 1.41186765 0.60055787     C
C     -0.0062127600000000715 0.9937872399999998 1.4118676500000003     C
C     0.4118676499999999 0.99378724 0.9937872400000001     C
C     -0.39944212999999995 1.4118676500000003 0.9937872400000001     C
C     -0.39944213000000023 0.99378724 0.9937872400000001     C
C     -0.006212759999999998 0.99378724 0.60055787     C
C     -0.0062127600000001825 0.6005578699999998 1.4118676500000003     C
C     0.4118676499999998 0.60055787 0.9937872400000001     C
C     0.09421197838832261 0.52450437552403 0.9508693505636174     C
C     0.5245043755240303 1.0942119783883222 0.43041429552403004     C
C     -0.10677685095010596 0.48868054483204004 1.0353256812860254     C
C     0.48868054483204015 0.8932231490498939 0.5827706248320402     C
C     0.0942119783883224 1.43041429552403 0.5245043755240301     C
C     0.09421197838832247 0.950869350563617 0.4304142955240305     C
C     0.4886805448320404 1.0353256812860254 0.893223149049894     C
C     0.5245043755240303 0.4304142955240299 0.9508693505636173     C
C     -0.47549562447597005 0.9508693505636169 1.0942119783883226     C
C     -0.1067768509501062 1.035325681286025 0.5827706248320407     C
C     -0.1067768509501065 0.5827706248320403 1.4886805448320404     C
C     0.48868054483204054 0.5827706248320401 1.0353256812860252     C
C     0.09421197838832261 0.52450437552403 1.43041429552403     C
C     -0.41722937516795977 1.0353256812860254 0.893223149049894     C
C     -0.10677685095010597 1.4886805448320402 0.5827706248320402     C
C     0.43041429552403027 0.9508693505636169 1.0942119783883226     C
C     0.0942119783883226 0.43041429552403 0.9508693505636173     C
C     0.09421197838832242 0.950869350563617 0.5245043755240305     C
C     0.43041429552403004 1.0942119783883224 0.52450437552403     C
C     0.5827706248320405 0.4886805448320403 1.0353256812860252     C
C     0.5827706248320403 0.8932231490498937 0.48868054483204026     C
C     -0.10677685095010633 1.0353256812860254 0.4886805448320407     C
C     -0.10677685095010624 0.58277062483204 1.0353256812860254     C
C     0.43041429552403054 0.5245043755240301 0.9508693505636171     C
C     0.30881657000000007 0.9959518499999999 0.6992797300000001     C
C     -0.004048150000000316 1.3088165699999998 0.99595185     C
C     -0.30072027000000007 0.9959518499999999 1.30881657     C
C     -0.004048150000000316 0.6992797299999999 0.99595185     C
C     0.3088165700000002 0.9959518499999999 0.99595185     C
C     0.30881657000000007 0.6992797299999999 0.99595185     C
C     -0.004048150000000554 1.3088165699999998 0.6992797300000001     C
C     -0.004048150000000332 0.9959518499999999 0.6992797300000001     C
C     -0.004048149999999888 0.6992797299999999 1.30881657     C
C     -0.3007202700000002 1.3088165699999998 0.99595185     C
C     -0.3007202700000001 0.9959518499999999 0.99595185     C
C     -0.00404815000000011 0.9959518499999999 1.30881657     C
O     0.06730803 0.06730803 0.79807592     O
O     0.06730803 0.06730803 0.06730803     O
O     0.79807592 0.06730803 0.06730803     O
O     0.06730803 0.79807592 0.06730803     O
O     0.07472636999999994 0.7379187399999999 0.92010767     O
O     -0.26208126000000015 1.07472637 1.26724722     O
O     -0.07989232999999991 1.2672472199999998 1.07472637     O
O     0.26724722 0.92010767 0.73791874     O
O     0.07472637000000004 1.2672472199999998 0.73791874     O
O     0.07472636999999992 0.9201076699999998 1.26724722     O
O     0.2672472200000002 1.0747263699999998 0.92010767     O
O     -0.2620812599999997 1.2672472199999998 0.92010767     O
O     -0.26208126000000004 0.9201076699999998 1.07472637     O
O     -0.0798923300000002 1.07472637 0.73791874     O
O     -0.07989232999999997 0.7379187399999999 1.26724722     O
O     0.2672472200000001 0.7379187399999999 1.07472637     O
O     0.07472637000000003 0.7379187399999999 1.26724722     O
O     -0.2620812599999997 1.0747263699999998 0.92010767     O
O     -0.07989232999999984 1.2672472199999998 0.73791874     O
O     0.26724722 0.9201076699999998 1.07472637     O
O     0.07472637000000006 1.2672472199999998 0.92010767     O
O     0.07472636999999999 0.92010767 0.73791874     O
O     0.26724722 1.07472637 0.73791874     O
O     -0.26208126000000004 1.2672472199999998 1.07472637     O
O     -0.26208125999999976 0.9201076699999998 1.26724722     O
O     -0.07989232999999997 1.07472637 1.26724722     O
O     -0.07989233000000003 0.7379187399999999 1.07472637     O
O     0.26724721999999995 0.7379187399999999 0.92010767     O
O     0.94958208 0.94958208 0.15125376     O
O     0.94958208 0.94958208 0.94958208     O
O     0.15125376 0.94958208 0.94958208     O
O     0.94958208 0.15125376 0.94958208     O
