@<TRIPOS>MOLECULE
LLA
   29    28     1     0     0
SMALL
gas


@<TRIPOS>ATOM
      1 O1          15.8630    -4.6490     0.8060 oh         1 LLA      -0.382946
      2 C1          16.5880    -5.6280     0.5130 c3         1 LLA       0.136730
      3 C2          15.9510    -6.4200    -0.3660 c3         1 LLA      -0.029183
      4 C3          17.7140    -5.1920    -0.0280 c          1 LLA       0.290309
      5 O2          17.6800    -4.4230    -0.7690 o          1 LLA      -0.263539
      6 H1          16.7860    -6.1410     1.3300 h1         1 LLA       0.070828
      7 H2          15.0910    -4.9760     0.9210 ho         1 LLA       0.211209
      8 H3          15.8320    -5.9470    -1.2190 hc         1 LLA       0.026240
      9 H4          16.4960    -7.2250    -0.5100 hc         1 LLA       0.026240
     10 H5          15.0680    -6.6780    -0.0210 hc         1 LLA       0.026240
     11 O3          18.7740    -5.6540     0.2920 os         1 LLA      -0.300195
     12 C4          19.7750    -5.1880    -0.2960 c3         1 LLA       0.149972
     13 C5          19.8630    -3.8620    -0.0640 c3         1 LLA      -0.028234
     14 C6          20.8710    -5.7760     0.1500 c          1 LLA       0.291186
     15 O4          20.8170    -6.5850     0.8460 o          1 LLA      -0.263505
     16 H6          19.6840    -5.3500    -1.2620 h1         1 LLA       0.071832
     17 H7          19.9930    -3.6960     0.8940 hc         1 LLA       0.026271
     18 H8          20.6300    -3.5030    -0.5640 hc         1 LLA       0.026271
     19 H9          19.0420    -3.4110    -0.3570 hc         1 LLA       0.026271
     20 O5          21.9240    -5.3690    -0.2510 os         1 LLA      -0.303214
     21 C7          23.0090    -5.7260     0.2540 c3         1 LLA       0.119670
     22 C8          23.4720    -6.8220    -0.3820 c3         1 LLA      -0.031097
     23 C9          23.8910    -4.7380     0.1320 c          1 LLA       0.148637
     24 O6          23.7320    -3.8200     0.6540 o          1 LLA      -0.300471
     25 H10         22.8730    -5.9390     1.2080 h1         1 LLA       0.068761
     26 H11         23.6340    -6.6230    -1.3300 hc         1 LLA       0.026162
     27 H12         24.3120    -7.1020     0.0430 hc         1 LLA       0.026162
     28 H13         22.8190    -7.5490    -0.3240 hc         1 LLA       0.026162
     29 H14         24.6710    -4.8420    -0.4540 h4         1 LLA       0.107232
@<TRIPOS>BOND
     1     1     2 1   
     2     1     7 1   
     3     2     3 1   
     4     2     4 1   
     5     2     6 1   
     6     3     8 1   
     7     3     9 1   
     8     3    10 1   
     9     4     5 2   
    10     4    11 1   
    11    11    12 1   
    12    12    13 1   
    13    12    14 1   
    14    12    16 1   
    15    13    17 1   
    16    13    18 1   
    17    13    19 1   
    18    14    15 2   
    19    14    20 1   
    20    20    21 1   
    21    21    22 1   
    22    21    23 1   
    23    21    25 1   
    24    22    26 1   
    25    22    27 1   
    26    22    28 1   
    27    23    24 2   
    28    23    29 1   
@<TRIPOS>SUBSTRUCTURE
     1 LLA         1 TEMP              0 ****  ****    0 ROOT
