@<TRIPOS>MOLECULE
bpy-aa
   20    21     1     0     0
SMALL
GASTEIGER


@<TRIPOS>ATOM
      1 C          19.1625   -5.2109    0.0002 C.ar      1 LIG1       -0.0149
      2 C          18.4787   -6.1583   -0.6374 C.ar      1 LIG1       -0.0359
      3 C          18.5270   -4.2303    0.6374 C.ar      1 LIG1       -0.0359
      4 C          17.1503   -6.1248   -0.6377 C.ar      1 LIG1        0.0281
      5 C          17.1986   -4.1963    0.6376 C.ar      1 LIG1        0.0281
      6 N          16.5175   -5.1440   -0.0001 N.ar      1 LIG1       -0.2630
      7 C          20.5780   -5.2465    0.0011 C.ar      1 LIG1       -0.0149
      8 C          21.2626   -4.2864   -0.6166 C.ar      1 LIG1       -0.0359
      9 C          21.2120   -6.2396    0.6200 C.ar      1 LIG1       -0.0359
     10 C          22.5910   -4.3197   -0.6153 C.ar      1 LIG1        0.0281
     11 C          22.5403   -6.2735    0.6217 C.ar      1 LIG1        0.0281
     12 N          23.2223   -5.3132    0.0040 N.ar      1 LIG1       -0.2628
     13 H          18.9940   -6.9424   -1.1468 H         1 LIG1        0.0639
     14 H          19.0812   -3.4732    1.1469 H         1 LIG1        0.0639
     15 H          16.5950   -6.8812   -1.1469 H         1 LIG1        0.0830
     16 H          16.6820   -3.4129    1.1467 H         1 LIG1        0.0830
     17 H          20.7481   -3.4926   -1.1114 H         1 LIG1        0.0639
     18 H          20.6570   -7.0066    1.1135 H         1 LIG1        0.0639
     19 H          23.1473   -3.5535   -1.1085 H         1 LIG1        0.0830
     20 H          23.0561   -7.0669    1.1159 H         1 LIG1        0.0830
@<TRIPOS>BOND
     1    1    2 ar
     2    1    3 ar
     3    1    7 1
     4    2    4 ar
     5    2   13 1
     6    3    5 ar
     7    3   14 1
     8    4    6 ar
     9    4   15 1
    10    5    6 ar
    11    5   16 1
    12    7    8 ar
    13    7    9 ar
    14    8   10 ar
    15    8   17 1
    16    9   11 ar
    17    9   18 1
    18   10   12 ar
    19   10   19 1
    20   11   12 ar
    21   11   20 1
@<TRIPOS>SUBSTRUCTURE
     1 LIG1        1 TEMP              0 ****  ****    0 ROOT
