@<TRIPOS>MOLECULE
bpy
   20    21     1     0     0
SMALL
gas


@<TRIPOS>ATOM
      1 C1          19.1630    -5.2110     0.0000 cp         1 bpy      -0.015237
      2 C2          18.4790    -6.1580    -0.6370 ca         1 bpy      -0.035940
      3 C3          18.5270    -4.2300     0.6370 ca         1 bpy      -0.035940
      4 C4          17.1500    -6.1250    -0.6380 ca         1 bpy       0.027341
      5 C5          17.1990    -4.1960     0.6380 ca         1 bpy       0.027341
      6 N1          16.5170    -5.1440    -0.0000 nb         1 bpy      -0.264704
      7 C6          20.5780    -5.2470     0.0010 cp         1 bpy      -0.015237
      8 C7          21.2630    -4.2860    -0.6170 ca         1 bpy      -0.035940
      9 C8          21.2120    -6.2400     0.6200 ca         1 bpy      -0.035940
     10 C9          22.5910    -4.3200    -0.6150 ca         1 bpy       0.027341
     11 C10         22.5400    -6.2740     0.6220 ca         1 bpy       0.027341
     12 N2          23.2220    -5.3130     0.0040 nb         1 bpy      -0.264704
     13 H1          18.9940    -6.9420    -1.1470 ha         1 bpy       0.064560
     14 H2          19.0810    -3.4730     1.1470 ha         1 bpy       0.064560
     15 H3          16.5950    -6.8810    -1.1470 h4         1 bpy       0.084009
     16 H4          16.6820    -3.4130     1.1470 h4         1 bpy       0.084009
     17 H5          20.7480    -3.4930    -1.1110 ha         1 bpy       0.064560
     18 H6          20.6570    -7.0070     1.1130 ha         1 bpy       0.064560
     19 H7          23.1470    -3.5540    -1.1090 h4         1 bpy       0.084009
     20 H8          23.0560    -7.0670     1.1160 h4         1 bpy       0.084009
@<TRIPOS>BOND
     1     1     2 ar  
     2     1     3 ar  
     3     1     7 1   
     4     2     4 ar  
     5     2    13 1   
     6     3     5 ar  
     7     3    14 1   
     8     4     6 ar  
     9     4    15 1   
    10     5     6 ar  
    11     5    16 1   
    12     7     8 ar  
    13     7     9 ar  
    14     8    10 ar  
    15     8    17 1   
    16     9    11 ar  
    17     9    18 1   
    18    10    12 ar  
    19    10    19 1   
    20    11    12 ar  
    21    11    20 1   
@<TRIPOS>SUBSTRUCTURE
     1 bpy         1 TEMP              0 ****  ****    0 ROOT
