
data_I
_chemical_name_systematic               ?
_chemical_name_common                   ?
_chemical_formula_moiety                ?
_chemical_formula_sum                   'C45 H33 Ho O7'
_chemical_formula_iupac                 ?
_chemical_formula_weight                850.64
_chemical_absolute_configuration        ad

_chemical_melting_point                 ?

_space_group_crystal_system             trigonal
_space_group_name_H-M_alt               'R 3'
_space_group_name_Hall                  'R 3'
loop_
    _space_group_symop_operation_xyz
    'x, y, z'
    '-y, x-y, z'
    '-x+y, -x, z'
    'x+2/3, y+1/3, z+1/3'
    '-y+2/3, x-y+1/3, z+1/3'
    '-x+y+2/3, -x+1/3, z+1/3'
    'x+1/3, y+2/3, z+2/3'
    '-y+1/3, x-y+2/3, z+2/3'
    '-x+y+1/3, -x+2/3, z+2/3'

_cell_length_a                          22.5681(7)
_cell_length_b                          22.5681(7)
_cell_length_c                          6.2859(3)
_cell_angle_alpha                       90
_cell_angle_beta                        90
_cell_angle_gamma                       120
_cell_volume                            2772.6(2)
_cell_formula_units_Z                   3
_cell_measurement_reflns_used           3137
_cell_measurement_theta_min             3.9175
_cell_measurement_theta_max             67.5537
_cell_measurement_temperature           153

_exptl_crystal_description              prismatic
_exptl_crystal_colour                   colourless
_exptl_crystal_size_max                 0.200
_exptl_crystal_size_mid                 0.050
_exptl_crystal_size_min                 0.050
_exptl_crystal_density_diffrn           1.528
_exptl_crystal_density_meas             ?
_exptl_crystal_density_method           'not measured'
_exptl_crystal_F_000                    1278

_exptl_absorpt_coefficient_mu           4.425
_exptl_absorpt_correction_type          empirical
_exptl_absorpt_process_details          'SADABS (Sheldrick 1996)'
_exptl_absorpt_correction_T_min         0.67
_exptl_absorpt_correction_T_max         0.81

_exptl_special_details                  'SADABS (Sheldrick 1996)' 

_diffrn_ambient_temperature             153

_diffrn_source                          'Bruker TXS fine-focus rotating anode'
_diffrn_source_type                     ?

_diffrn_radiation_type                  CuK\a
_diffrn_radiation_wavelength            1.54178
_diffrn_radiation_monochromator         
    'Bruker Helios multilayer confocal mirror'

_diffrn_measurement_device_type         
    'Bruker APEXII Ultra CCD area detector'
_diffrn_measurement_method              'Phi and Omega scans'

_diffrn_detector_area_resol_mean        8.3333

_diffrn_reflns_number                   6121
_diffrn_reflns_av_R_equivalents         0.0462
_diffrn_reflns_av_unetI/netI            0.0593
_diffrn_reflns_theta_min                3.917
_diffrn_reflns_theta_max                68.271
_diffrn_reflns_theta_full               66.500
_diffrn_measured_fraction_theta_max     0.973
_diffrn_measured_fraction_theta_full    0.972
_diffrn_reflns_limit_h_min              -27
_diffrn_reflns_limit_h_max              27
_diffrn_reflns_limit_k_min              -26
_diffrn_reflns_limit_k_max              26
_diffrn_reflns_limit_l_min              -6
_diffrn_reflns_limit_l_max              7

_refine_special_details                 
;
;

_reflns_number_total                    1924
_reflns_number_gt                       1805
_reflns_threshold_expression            'I > 2\s(I)'

_refine_ls_structure_factor_coef        Fsqd
_refine_ls_matrix_type                  full
_refine_ls_R_factor_all                 0.0502
_refine_ls_R_factor_gt                  0.0469
_refine_ls_wR_factor_gt                 0.1059
_refine_ls_wR_factor_ref                0.1080
_refine_ls_goodness_of_fit_ref          1.072
_refine_ls_restrained_S_all             1.070
_refine_ls_number_reflns                1924
_refine_ls_number_parameters            194
_refine_ls_number_restraints            57
_refine_ls_hydrogen_treatment           constr
_refine_ls_weighting_scheme             calc
_refine_ls_weighting_details            
    'w=1/[\s^2^(Fo^2^)+(0.0284P)^2^+13.7029P] where P=(Fo^2^+2Fc^2^)/3'

_atom_sites_solution_hydrogens          geom
_atom_sites_solution_primary            ?
_atom_sites_solution_secondary          ?

_refine_ls_shift/su_max                 0.000
_refine_ls_shift/su_mean                0.000
_refine_diff_density_max                1.027
_refine_diff_density_min                -0.698
_refine_ls_extinction_method            none
_refine_ls_extinction_coef              ?
_refine_ls_abs_structure_details        
;
 Flack x determined using 643 quotients [(I+)-(I-)]/[(I+)+(I-)]
 (Parsons, Flack and Wagner, Acta Cryst. B69 (2013) 249-259).
;
_refine_ls_abs_structure_Flack          0.109(17)

_reflns_Friedel_coverage                0.746
_reflns_Friedel_fraction_max            0.726
_reflns_Friedel_fraction_full           0.729
 
_reflns_special_details
;
 Reflections were merged by SHELXL according to the crystal
 class for the calculation of statistics and refinement.
 
 _reflns_Friedel_fraction is defined as the number of unique
 Friedel pairs measured divided by the number that would be
 possible theoretically, ignoring centric projections and
 systematic absences.
;


loop_
    _atom_type_symbol
    _atom_type_description
    _atom_type_scat_dispersion_real
    _atom_type_scat_dispersion_imag
    _atom_type_scat_source
    C C 0.0181 0.0091 'International Tables Vol C Tables 4.2.6.8 and 6.1.1.4'
    H H 0.0000 0.0000 'International Tables Vol C Tables 4.2.6.8 and 6.1.1.4'
    Ho Ho -14.9734 3.7046
     'International Tables Vol C Tables 4.2.6.8 and 6.1.1.4'
    O O 0.0492 0.0322 'International Tables Vol C Tables 4.2.6.8 and 6.1.1.4'

_computing_data_collection              'APEX3 (Bruker AXS, 2006)'
_computing_cell_refinement              'SAINT V8.34A (Bruker AXS Inc., 2013)'
_computing_data_reduction               'SAINT V8.34A (Bruker AXS Inc., 2013)'
_computing_structure_solution           'SHELXT 2014/5 (Sheldrick, 2014)'
_computing_structure_refinement         'SHELXL-2017/1 (Sheldrick, 2017)'
_computing_molecular_graphics           'SHELXLE (Bruker AXS,2002)'
_computing_publication_material         'XCIF (Bruker AXS, 2001)'

loop_
    _atom_site_type_symbol
    _atom_site_label
    _atom_site_fract_x
    _atom_site_fract_y
    _atom_site_fract_z
    _atom_site_U_iso_or_equiv
    _atom_site_adp_type
    _atom_site_calc_flag
    _atom_site_refinement_flags_adp
    _atom_site_refinement_flags_occupancy
    _atom_site_refinement_flags_posn
    _atom_site_occupancy
    _atom_site_disorder_assembly
    _atom_site_disorder_group
    C C10 0.6889(4) 0.5083(4) 0.0988(14) 0.047(2) Uani d . . G 1.0 . .
    C C11 0.7271(9) 0.4988(6) -0.057(2) 0.050(5) Uani d U P DG 0.62(3) A 1
    H H11 0.734526 0.461015 -0.048464 0.06 Uiso calc U P R 0.62(3) A 1
    C C12 0.7544(9) 0.5447(7) -0.2252(19) 0.061(6) Uani d U P DG 0.62(3) A 1
    H H12 0.780525 0.538255 -0.33166 0.073 Uiso calc U P R 0.62(3) A 1
    C C13 0.7435(11) 0.6000(8) -0.238(3) 0.091(12) Uani d U P DG 0.62(3) A 1
    H H13 0.762177 0.631376 -0.352591 0.109 Uiso calc U P R 0.62(3) A 1
    C C14 0.7053(15) 0.6095(10) -0.082(4) 0.124(13) Uani d U P DG 0.62(3) A 1
    H H14 0.697831 0.647258 -0.090328 0.149 Uiso calc U P R 0.62(3) A 1
    C C15 0.6780(11) 0.5636(9) 0.086(3) 0.120(14) Uani d U P DG 0.62(3) A 1
    H H15 0.651832 0.570019 0.19287 0.145 Uiso calc U P R 0.62(3) A 1
    C C21 0.751(2) 0.523(3) 0.018(10) 0.110(14) Uani d U P D 0.38(3) A 2
    H H21 0.772964 0.499516 0.072652 0.132 Uiso calc U P R 0.38(3) A 2
    C C22 0.784(2) 0.572(3) -0.143(9) 0.122(15) Uani d U P D 0.38(3) A 2
    H H22 0.830665 0.590189 -0.173811 0.147 Uiso calc U P R 0.38(3) A 2
    C C23 0.7443(18) 0.593(2) -0.256(7) 0.076(14) Uani d U P D 0.38(3) A 2
    H H23 0.758462 0.615174 -0.390388 0.091 Uiso calc U P R 0.38(3) A 2
    C C24 0.6842(13) 0.5813(14) -0.164(4) 0.047(7) Uani d U P D 0.38(3) A 2
    H H24 0.662381 0.605132 -0.215476 0.056 Uiso calc U P R 0.38(3) A 2
    C C25 0.6542(11) 0.5357(13) 0.002(3) 0.043(7) Uani d U P D 0.38(3) A 2
    H H25 0.6095 0.523569 0.048945 0.052 Uiso calc U P R 0.38(3) A 2
    Ho Ho1 0.666667 0.333333 0.54345(13) 0.0420(3) Uani d T P S 1.0 . .
    O O1 0.5931(3) 0.3701(4) 0.6420(10) 0.0511(16) Uani d . . . 1.0 . .
    O O2 0.6838(3) 0.4179(3) 0.3035(10) 0.0474(15) Uani d . . . 1.0 . .
    O O3 0.666667 0.333333 0.9240(15) 0.049(3) Uani d T P S 1.0 . .
    C C1 0.5760(5) 0.4129(5) 0.5743(14) 0.045(2) Uani d . . . 1.0 . .
    C C2 0.6077(5) 0.4568(5) 0.4016(15) 0.050(2) Uani d . . . 1.0 . .
    H H2 0.593313 0.488666 0.367182 0.06 Uiso calc U . R 1.0 . .
    C C3 0.6589(4) 0.4570(5) 0.2769(14) 0.043(2) Uani d . . . 1.0 . .
    C C4 0.5196(5) 0.4164(6) 0.6880(16) 0.057(3) Uani d . . . 1.0 . .
    C C5 0.5032(6) 0.3892(6) 0.8944(19) 0.073(4) Uani d . . . 1.0 . .
    H H5 0.528169 0.370578 0.9603 0.088 Uiso calc U . R 1.0 . .
    C C6 0.4493(7) 0.3901(8) 1.001(2) 0.087(5) Uani d . . . 1.0 . .
    H H6 0.437233 0.371717 1.140606 0.104 Uiso calc U . R 1.0 . .
    C C7 0.4133(7) 0.4176(8) 0.905(3) 0.096(6) Uani d . . . 1.0 . .
    H H7 0.375888 0.416762 0.976808 0.116 Uiso calc U . R 1.0 . .
    C C8 0.4311(6) 0.4458(7) 0.708(2) 0.087(5) Uani d . . . 1.0 . .
    H H8 0.407234 0.466248 0.64525 0.105 Uiso calc U . R 1.0 . .
    C C9 0.4837(6) 0.4450(6) 0.597(2) 0.066(3) Uani d . . . 1.0 . .
    H H9 0.495283 0.464172 0.45806 0.079 Uiso calc U . R 1.0 . .

loop_
    _atom_site_aniso_label
    _atom_site_aniso_U_11
    _atom_site_aniso_U_22
    _atom_site_aniso_U_33
    _atom_site_aniso_U_12
    _atom_site_aniso_U_13
    _atom_site_aniso_U_23
    C10 0.042(5) 0.042(5) 0.053(6) 0.018(4) 0.006(4) 0.007(4)
    C11 0.071(13) 0.029(9) 0.040(9) 0.018(8) 0.020(8) -0.001(7)
    C12 0.091(14) 0.028(8) 0.047(10) 0.016(9) 0.024(9) 0.003(7)
    C13 0.10(2) 0.066(16) 0.12(3) 0.048(15) 0.020(19) 0.043(17)
    C14 0.12(2) 0.09(2) 0.20(3) 0.081(18) 0.03(2) 0.07(2)
    C15 0.10(2) 0.09(2) 0.20(4) 0.08(2) 0.06(2) 0.07(2)
    C21 0.09(2) 0.07(2) 0.17(3) 0.03(2) 0.07(2) 0.07(2)
    C22 0.08(2) 0.10(2) 0.15(3) 0.019(19) 0.06(2) 0.07(2)
    C23 0.048(19) 0.08(2) 0.08(2) 0.021(16) 0.044(16) 0.050(18)
    C24 0.042(13) 0.047(14) 0.037(12) 0.012(11) 0.019(9) 0.008(10)
    C25 0.024(11) 0.048(14) 0.027(11) -0.004(10) 0.009(8) -0.002(9)
    Ho1 0.0534(4) 0.0534(4) 0.0192(4) 0.0267(2) 0 0
    O1 0.054(4) 0.061(4) 0.035(4) 0.026(3) 0.015(3) 0.001(3)
    O2 0.056(4) 0.055(4) 0.036(3) 0.031(3) 0.016(3) 0.015(3)
    O3 0.062(4) 0.062(4) 0.022(5) 0.031(2) 0 0
    C1 0.043(5) 0.055(6) 0.035(4) 0.024(4) 0.003(4) -0.011(4)
    C2 0.058(6) 0.058(6) 0.042(5) 0.034(5) 0.007(4) -0.002(4)
    C3 0.034(4) 0.050(5) 0.038(5) 0.016(4) 0.005(3) -0.005(4)
    C4 0.047(6) 0.061(6) 0.049(6) 0.016(5) 0.012(4) -0.019(5)
    C5 0.065(7) 0.072(8) 0.057(7) 0.015(6) 0.024(6) -0.019(6)
    C6 0.062(8) 0.081(10) 0.073(9) 0.002(7) 0.037(7) -0.019(7)
    C7 0.049(7) 0.082(10) 0.128(14) 0.010(7) 0.033(8) -0.043(10)
    C8 0.047(6) 0.085(9) 0.111(12) 0.019(6) 0.021(7) -0.038(8)
    C9 0.049(6) 0.075(8) 0.071(8) 0.029(6) 0.004(5) -0.028(6)

_geom_special_details                   
;

All esds (except the esd in the dihedral angle between two l.s. planes)
are estimated using the full covariance matrix.  The cell esds are taken
into account individually in the estimation of esds in distances, angles
and torsion angles; correlations between esds in cell parameters are only
used when they are defined by crystal symmetry.  An approximate (isotropic)
treatment of cell esds is used for estimating esds involving l.s. planes.
;

loop_
    _geom_bond_atom_site_label_1
    _geom_bond_atom_site_label_2
    _geom_bond_site_symmetry_2
    _geom_bond_distance
    _geom_bond_publ_flag
    C10 C25 . 1.36(3) ?
    C10 C21 . 1.37(4) ?
    C10 C11 . 1.39 ?
    C10 C15 . 1.39 ?
    C10 C3 . 1.505(12) ?
    C11 C12 . 1.39 ?
    C11 H11 . 0.95 ?
    C12 C13 . 1.39 ?
    C12 H12 . 0.95 ?
    C13 C14 . 1.39 ?
    C13 H13 . 0.95 ?
    C14 C15 . 1.39 ?
    C14 H14 . 0.95 ?
    C15 H15 . 0.95 ?
    C21 C22 . 1.41(2) ?
    C21 H21 . 0.95 ?
    C22 C23 . 1.39(3) ?
    C22 H22 . 0.95 ?
    C23 C24 . 1.37(2) ?
    C23 H23 . 0.95 ?
    C24 C25 . 1.38(2) ?
    C24 H24 . 0.95 ?
    C25 H25 . 0.95 ?
    Ho1 O1 2_655 2.282(7) ?
    Ho1 O1 3_665 2.282(7) ?
    Ho1 O1 . 2.282(7) ?
    Ho1 O2 3_665 2.308(6) ?
    Ho1 O2 2_655 2.308(6) ?
    Ho1 O2 . 2.308(6) ?
    Ho1 O3 . 2.392(9) ?
    O1 C1 . 1.280(12) ?
    O2 C3 . 1.274(11) ?
    C1 C2 . 1.401(13) ?
    C1 C4 . 1.495(12) ?
    C2 C3 . 1.394(12) ?
    C2 H2 . 0.95 ?
    C4 C9 . 1.389(17) ?
    C4 C5 . 1.404(16) ?
    C5 C6 . 1.399(18) ?
    C5 H5 . 0.95 ?
    C6 C7 . 1.38(2) ?
    C6 H6 . 0.95 ?
    C7 C8 . 1.36(2) ?
    C7 H7 . 0.95 ?
    C8 C9 . 1.384(14) ?
    C8 H8 . 0.95 ?
    C9 H9 . 0.95 ?

loop_
    _geom_angle_atom_site_label_1
    _geom_angle_atom_site_label_2
    _geom_angle_atom_site_label_3
    _geom_angle_site_symmetry_1
    _geom_angle_site_symmetry_3
    _geom_angle
    _geom_angle_publ_flag
    C25 C10 C21 . . 118.6(19) ?
    C11 C10 C15 . . 120.0 ?
    C25 C10 C3 . . 122.8(11) ?
    C21 C10 C3 . . 118.3(16) ?
    C11 C10 C3 . . 118.8(7) ?
    C15 C10 C3 . . 121.2(7) ?
    C12 C11 C10 . . 120.0 ?
    C12 C11 H11 . . 120.0 ?
    C10 C11 H11 . . 120.0 ?
    C11 C12 C13 . . 120.0 ?
    C11 C12 H12 . . 120.0 ?
    C13 C12 H12 . . 120.0 ?
    C12 C13 C14 . . 120.0 ?
    C12 C13 H13 . . 120.0 ?
    C14 C13 H13 . . 120.0 ?
    C15 C14 C13 . . 120.0 ?
    C15 C14 H14 . . 120.0 ?
    C13 C14 H14 . . 120.0 ?
    C14 C15 C10 . . 120.0 ?
    C14 C15 H15 . . 120.0 ?
    C10 C15 H15 . . 120.0 ?
    C10 C21 C22 . . 122.(3) ?
    C10 C21 H21 . . 119.2 ?
    C22 C21 H21 . . 119.2 ?
    C23 C22 C21 . . 118.(3) ?
    C23 C22 H22 . . 121.0 ?
    C21 C22 H22 . . 121.0 ?
    C24 C23 C22 . . 117.(2) ?
    C24 C23 H23 . . 121.6 ?
    C22 C23 H23 . . 121.6 ?
    C23 C24 C25 . . 122.(2) ?
    C23 C24 H24 . . 118.8 ?
    C25 C24 H24 . . 118.8 ?
    C10 C25 C24 . . 120.(2) ?
    C10 C25 H25 . . 120.1 ?
    C24 C25 H25 . . 120.1 ?
    O1 Ho1 O1 2_655 3_665 112.91(15) ?
    O1 Ho1 O1 2_655 . 112.91(15) ?
    O1 Ho1 O1 3_665 . 112.91(15) ?
    O1 Ho1 O2 2_655 3_665 84.5(3) ?
    O1 Ho1 O2 3_665 3_665 74.3(2) ?
    O1 Ho1 O2 . 3_665 154.0(2) ?
    O1 Ho1 O2 2_655 2_655 74.3(2) ?
    O1 Ho1 O2 3_665 2_655 154.0(2) ?
    O1 Ho1 O2 . 2_655 84.5(3) ?
    O2 Ho1 O2 3_665 2_655 81.9(3) ?
    O1 Ho1 O2 2_655 . 154.0(2) ?
    O1 Ho1 O2 3_665 . 84.5(3) ?
    O1 Ho1 O2 . . 74.3(2) ?
    O2 Ho1 O2 3_665 . 81.9(3) ?
    O2 Ho1 O2 2_655 . 81.9(3) ?
    O1 Ho1 O3 2_655 . 74.24(18) ?
    O1 Ho1 O3 3_665 . 74.24(18) ?
    O1 Ho1 O3 . . 74.24(18) ?
    O2 Ho1 O3 3_665 . 130.81(18) ?
    O2 Ho1 O3 2_655 . 130.81(17) ?
    O2 Ho1 O3 . . 130.81(17) ?
    C1 O1 Ho1 . . 137.2(6) ?
    C3 O2 Ho1 . . 135.2(5) ?
    O1 C1 C2 . . 123.5(8) ?
    O1 C1 C4 . . 117.8(9) ?
    C2 C1 C4 . . 118.7(10) ?
    C3 C2 C1 . . 124.6(9) ?
    C3 C2 H2 . . 117.7 ?
    C1 C2 H2 . . 117.7 ?
    O2 C3 C2 . . 125.2(9) ?
    O2 C3 C10 . . 116.4(7) ?
    C2 C3 C10 . . 118.4(9) ?
    C9 C4 C5 . . 119.8(10) ?
    C9 C4 C1 . . 122.5(10) ?
    C5 C4 C1 . . 117.7(11) ?
    C6 C5 C4 . . 118.6(15) ?
    C6 C5 H5 . . 120.7 ?
    C4 C5 H5 . . 120.7 ?
    C7 C6 C5 . . 120.4(15) ?
    C7 C6 H6 . . 119.8 ?
    C5 C6 H6 . . 119.8 ?
    C8 C7 C6 . . 120.5(12) ?
    C8 C7 H7 . . 119.7 ?
    C6 C7 H7 . . 119.7 ?
    C7 C8 C9 . . 120.4(15) ?
    C7 C8 H8 . . 119.8 ?
    C9 C8 H8 . . 119.8 ?
    C8 C9 C4 . . 120.2(13) ?
    C8 C9 H9 . . 119.9 ?
    C4 C9 H9 . . 119.9 ?

_shelx_res_file                         
;

TITL u210719mas1.res in R3
    u210719mas1.res
    created by SHELXL-2017/1 at 17:55:37 on 20-Jul-2021
REM Old TITL u210719mas1 in R3
REM SHELXT solution in R3
REM R1 0.251,  Rweak 0.326,  Alpha 0.068,  Orientation as input
REM Flack x =  0.355 ( 0.011 ) from Parsons' quotients
REM Formula found by SHELXT:  C63 Ho O7
CELL  1.54178  22.5681  22.5681   6.2859   90.000   90.000  120.000
ZERR    3.000   0.0007   0.0007   0.0003    0.000    0.000    0.000
LATT -3
SYMM -Y, X-Y, Z
SYMM -X+Y, -X, Z
SFAC C H HO O
UNIT 135 99 3 21
TEMP -120
SIZE 0.05 0.10 0.40
L.S. 10
acta 133
SIMU 0.04 0.08 2 C11 C12 C13 C14 C15
SIMU 0.02 0.04 2 C21 C22 C23 C24 C25
BOND $H
LIST 4
FMAP 2
PLAN 20
WGHT    0.028400   13.702900
FVAR       0.10612   0.61573
AFIX  66
C10   1    0.688854    0.508254    0.098829    11.00000    0.04218    0.04151 =
         0.05275    0.00701    0.00582    0.01760
PART 1
C11   1    0.727077    0.498821   -0.056961    21.00000    0.07084    0.02950 =
         0.04032   -0.00112    0.02017    0.01812
AFIX  43
H11   2    0.734526    0.461015   -0.048464    21.00000   -1.20000
AFIX  65
C12   1    0.754401    0.544702   -0.225184    21.00000    0.09061    0.02768 =
         0.04732    0.00318    0.02355    0.01649
AFIX  43
H12   2    0.780525    0.538255   -0.331660    21.00000   -1.20000
AFIX  65
C13   1    0.743502    0.600018   -0.237618    21.00000    0.09818    0.06561 =
         0.11822    0.04336    0.02038    0.04818
AFIX  43
H13   2    0.762177    0.631376   -0.352591    21.00000   -1.20000
AFIX  65
C14   1    0.705279    0.609452   -0.081829    21.00000    0.11995    0.09033 =
         0.19868    0.06915    0.03469    0.08064
AFIX  43
H14   2    0.697831    0.647258   -0.090328    21.00000   -1.20000
AFIX  65
C15   1    0.677955    0.563571    0.086395    21.00000    0.10211    0.09315 =
         0.20175    0.06534    0.05784    0.07563
AFIX  43
H15   2    0.651832    0.570019    0.192870    21.00000   -1.20000
AFIX   0
PART 2
same C11 > C15
C21   1    0.751103    0.523003    0.018333   -21.00000    0.08863    0.06649 =
         0.16674    0.06945    0.07334    0.03263
AFIX  43
H21   2    0.772964    0.499516    0.072652   -21.00000   -1.20000
AFIX   0
C22   1    0.783511    0.572092   -0.142871   -21.00000    0.08464    0.09661 =
         0.15060    0.06616    0.05749    0.01913
AFIX  43
H22   2    0.830665    0.590189   -0.173811   -21.00000   -1.20000
AFIX   0
C23   1    0.744254    0.593361   -0.255850   -21.00000    0.04849    0.08252 =
         0.08102    0.04963    0.04429    0.02124
AFIX  43
H23   2    0.758462    0.615174   -0.390388   -21.00000   -1.20000
AFIX   0
C24   1    0.684168    0.581292   -0.163502   -21.00000    0.04246    0.04715 =
         0.03661    0.00800    0.01919    0.01175
AFIX  43
H24   2    0.662381    0.605132   -0.215476   -21.00000   -1.20000
AFIX   0
C25   1    0.654211    0.535708    0.002374   -21.00000    0.02423    0.04780 =
         0.02715   -0.00159    0.00889   -0.00422
AFIX  43
H25   2    0.609500    0.523569    0.048945   -21.00000   -1.20000
AFIX   0
PART 0
HO1   3    0.666667    0.333333    0.543448    10.33333    0.05344    0.05344 =
         0.01921    0.00000    0.00000    0.02672
O1    4    0.593109    0.370094    0.642030    11.00000    0.05369    0.06080 =
         0.03483    0.00083    0.01537    0.02568
O2    4    0.683832    0.417887    0.303494    11.00000    0.05622    0.05514 =
         0.03568    0.01462    0.01611    0.03138
O3    4    0.666667    0.333333    0.924032    10.33333    0.06236    0.06236 =
         0.02232    0.00000    0.00000    0.03118
C1    1    0.575986    0.412908    0.574251    11.00000    0.04274    0.05535 =
         0.03536   -0.01141    0.00283    0.02413
C2    1    0.607691    0.456806    0.401633    11.00000    0.05790    0.05773 =
         0.04161   -0.00249    0.00689    0.03377
AFIX  43
H2    2    0.593313    0.488666    0.367182    11.00000   -1.20000
AFIX   0
C3    1    0.658852    0.457025    0.276869    11.00000    0.03376    0.05007 =
         0.03828   -0.00468    0.00468    0.01629
C4    1    0.519615    0.416360    0.687985    11.00000    0.04674    0.06100 =
         0.04867   -0.01897    0.01151    0.01636
C5    1    0.503190    0.389189    0.894420    11.00000    0.06531    0.07158 =
         0.05679   -0.01853    0.02399    0.01451
AFIX  43
H5    2    0.528169    0.370578    0.960300    11.00000   -1.20000
AFIX   0
C6    1    0.449258    0.390101    1.001071    11.00000    0.06169    0.08050 =
         0.07328   -0.01918    0.03707    0.00217
AFIX  43
H6    2    0.437233    0.371717    1.140606    11.00000   -1.20000
AFIX   0
C7    1    0.413291    0.417615    0.904630    11.00000    0.04856    0.08240 =
         0.12771   -0.04318    0.03325    0.00967
AFIX  43
H7    2    0.375888    0.416762    0.976808    11.00000   -1.20000
AFIX   0
C8    1    0.431073    0.445839    0.707502    11.00000    0.04676    0.08527 =
         0.11150   -0.03844    0.02146    0.01931
AFIX  43
H8    2    0.407234    0.466248    0.645250    11.00000   -1.20000
AFIX   0
C9    1    0.483699    0.445042    0.596807    11.00000    0.04905    0.07467 =
         0.07148   -0.02757    0.00402    0.02944
AFIX  43
H9    2    0.495283    0.464172    0.458060    11.00000   -1.20000

AFIX   0
HKLF 4




REM  u210719mas1.res in R3
REM R1 =  0.0469 for    1805 Fo > 4sig(Fo)  and  0.0502 for all    1924 data
REM    194 parameters refined using     57 restraints

END

WGHT      0.0327     13.1372

REM Highest difference peak  1.027,  deepest hole -0.698,  1-sigma level  0.097
Q1    1   0.6889  0.3926  0.5521  11.00000  0.05    0.79
Q2    1   0.6290  0.3581  0.5345  11.00000  0.05    0.75
Q3    1   0.6774  0.4086  0.3868  11.00000  0.05    0.41
Q4    1   0.6060  0.3408  0.6843  11.00000  0.05    0.34
Q5    1   0.5937  0.3884  0.8937  11.00000  0.05    0.33
Q6    1   0.5465  0.3996  1.1265  11.00000  0.05    0.33
Q7    1   0.5243  0.4558  1.1237  11.00000  0.05    0.32
Q8    1   0.5428  0.3469  1.0057  11.00000  0.05    0.31
Q9    1   0.7226  0.4645  0.1766  11.00000  0.05    0.31
Q10   1   0.6804  0.4723  0.0643  11.00000  0.05    0.30
Q11   1   0.7930  0.5972 -0.0445  11.00000  0.05    0.30
Q12   1   0.7417  0.5426  0.1349  11.00000  0.05    0.29
Q13   1   0.4723  0.4745  0.2769  11.00000  0.05    0.29
Q14   1   0.6126  0.3987  0.2146  11.00000  0.05    0.28
Q15   1   0.4564  0.4549  0.3459  11.00000  0.05    0.28
Q16   1   0.7397  0.5239 -0.3024  11.00000  0.05    0.27
Q17   1   0.6065  0.6035 -0.2177  11.00000  0.05    0.26
Q18   1   0.7355  0.6128 -0.1780  11.00000  0.05    0.25
Q19   1   0.8146  0.6710 -0.1857  11.00000  0.05    0.24
Q20   1   0.5884  0.4629  0.6753  11.00000  0.05    0.24
;
_shelx_res_checksum                     15730

_shelx_hkl_file                         
;
   1   1   0  578.42   27.39
   1  -2   0  541.71   27.06
   2  -1   0  493.50   27.15
   3   0   0   89.46    5.39
   0  -3   0   87.68    5.27
   3  -3   0  107.97    5.47
   2   2   0  324.29   15.86
   2  -4   0  323.49   15.89
   4  -2   0  270.61   16.07
   4  -5   0  924.38   45.71
  -5   1   0  871.76   45.34
  -1  -4   0  916.15   45.60
  -1  -4   0  877.73   45.20
   5  -1   0  916.51   45.84
   4   1   0   65.19    4.37
   1  -5   0   57.05    4.12
   1  -5   0   58.63    3.56
  -5   4   0   60.61    3.80
   3  -6   0  161.13    8.77
   3   3   0  155.23    9.35
  -6   3   0  178.73    9.02
   3  -6   0  159.65    9.42
  -3  -3   0  187.85    8.84
   0  -6   0   21.29    2.84
   0  -6   0   21.05    1.97
  -6   6   0   19.17    2.27
  -6   0   0   21.98    1.91
   6  -6   0   15.93    3.24
   6  -6   0   23.23    2.14
  -6   0   0   20.44    2.40
   5  -7   0  412.30   19.79
  -7   2   0  401.59   20.01
  -7   2   0  365.80   19.76
   5  -7   0  387.94   20.55
  -2  -5   0  385.92   19.85
  -5   7   0  383.25   19.88
   2  -7   0  282.70   15.77
  -7   5   0  295.37   15.36
   5   2   0  306.56   15.87
   2  -7   0  295.73   15.17
  -5  -2   0  319.63   15.21
  -5  -2   0  284.02   15.13
   7  -5   0  283.32   16.13
   7  -8   0  102.31    7.07
  -8   1   0  113.73    6.08
  -8   1   0  101.87    5.72
   7  -8   0  110.55    5.69
  -1  -7   0  100.31    6.56
  -1  -7   0   98.42    5.78
   8  -1   0   95.63    7.59
  -7   8   0   95.69    5.98
   4  -8   0  138.66    8.79
   4   4   0  154.45    8.71
  -8   4   0  150.33    7.88
  -8   4   0  159.49    8.21
   4  -8   0  140.24    7.87
   8  -4   0  156.46    9.31
  -4   8   0  139.22    7.90
  -4  -4   0  147.30    7.96
   7   1   0   98.47    6.78
   1  -8   0   89.42    6.18
  -8   7   0   90.55    5.59
   1  -8   0   93.13    5.33
  -7  -1   0   92.53    5.50
   8  -7   0   97.56    5.20
  -7  -1   0   94.23    5.27
   8  -7   0   83.56    6.64
   6  -9   0  195.95   12.19
   3   6   0  208.13   11.82
  -9   3   0  210.18   11.44
   6  -9   0  207.04   11.13
  -9   3   0  193.86   11.11
  -6   9   0  227.65   11.31
   9  -3   0  229.90   12.72
  -3  -6   0  230.13   11.28
  -9   6   0  105.83    5.92
  -9   6   0  107.97    6.32
   3  -9   0  110.22    6.00
   6   3   0  102.42    7.10
   3  -9   0  109.27    7.06
  -6  -3   0  102.94    5.94
  -6  -3   0   98.69    5.99
   9  -6   0  108.45    7.56
   0  -9   0  156.57    9.51
  -9   9   0  157.95    8.93
   0  -9   0  159.28    8.63
   9   0   0  171.28   10.87
  -9   0   0  165.03    8.85
   9  -9   0  140.54   10.12
   9  -9   0  150.78    8.41
   8 -10   0  140.99    9.68
 -10   2   0  152.11    8.45
   2   8   0  157.08    8.76
   8 -10   0  146.33    8.02
 -10   2   0  140.29    8.09
  -8  10   0  143.15    8.35
  -2  -8   0  153.87    8.26
  10  -2   0  146.50   10.39
   5 -10   0   60.15    3.94
   5 -10   0   60.99    5.40
   5   5   0   58.93    5.11
 -10   5   0   61.56    4.47
  -5  10   0   61.49    4.10
  10  -5   0   53.89    5.86
  -5  -5   0   62.22    4.01
   2 -10   0   69.43    5.54
   8   2   0   72.30    6.59
   2 -10   0   69.77    4.32
 -10   8   0   65.54    4.74
  -8  -2   0   62.60    4.21
  10  -8   0   53.00    6.10
  -8  -2   0   62.51    4.38
  10 -11   0  126.03   10.16
 -11   1   0  142.02    8.19
  11  -1   0  139.27   10.92
  -1 -10   0  147.50    8.01
 -10  11   0  138.09    8.25
   4   7   0  174.84   10.19
   7 -11   0  173.15    9.19
   7 -11   0  172.45   10.80
  -7  11   0  164.82    9.35
  11  -4   0  158.91   11.12
  -4  -7   0  173.94    9.42
   4 -11   0   45.20    4.86
   7   4   0   44.64    5.57
 -11   7   0   39.56    3.94
   4 -11   0   47.06    3.47
  -7  -4   0   34.34    3.25
  10   1   0  100.60    9.49
   1 -11   0  103.03    5.97
 -11  10   0   93.65    6.25
  11 -10   0   86.50    8.40
 -10  -1   0   94.03    5.99
 -12   3   0  179.26   10.28
   3   9   0  205.66   10.74
   9 -12   0  180.45   11.90
   9 -12   0  175.20    9.72
  -3  -9   0  180.99   10.00
  12  -3   0  163.57   12.01
  -9  12   0  171.10   10.14
   6 -12   0  145.59    7.75
   6 -12   0  141.37    9.32
 -12   6   0  143.08    8.20
   6   6   0  135.67    9.02
  12  -6   0  116.65    9.59
  -6  -6   0  128.05    7.73
 -12   9   0   81.94    5.78
   9   3   0   71.44    8.31
   3 -12   0   83.80    5.32
  12  -9   0   84.45    7.93
  -9  -3   0   87.10    5.47
  -9  -3   0   81.76    5.29
  12   0   0  138.63   12.41
 -12  12   0  130.86    8.33
   0 -12   0  131.70    7.94
  12 -12   0  133.88   11.78
 -12   0   0  137.60    8.11
  11 -13   0  154.54   12.01
 -13   2   0  159.55    9.07
 -11  13   0  139.82    9.05
  13  -2   0  149.32   12.31
  -2 -11   0  152.51    8.83
   8 -13   0  172.06    9.89
   8 -13   0  172.13   11.77
 -13   5   0  175.78   10.35
   5   8   0  194.14   10.96
  13  -5   0  177.06   12.17
  -5  -8   0  189.18   10.12
   8   5   0   50.42    7.07
 -13   8   0   65.87    5.07
   5 -13   0   69.11    4.62
  13  -8   0   68.26    7.46
  -8  -5   0   62.67    4.44
 -13  11   0   23.36    3.73
   2 -13   0   27.36    3.36
 -11  -2   0   21.41    3.13
 -11  -2   0   26.60    2.94
  13 -11   0   35.26    7.99
 -14   1   0   74.98    5.51
 -13  14   0   64.55    5.66
  -1 -13   0   62.77    5.25
 -14   4   0  137.44    8.79
  10 -14   0  133.11   11.14
  14  -4   0  164.64   12.20
  -4 -10   0  143.36    8.55
 -14   7   0   92.55    6.30
   7   7   0   86.22    7.72
   7 -14   0   87.89    5.89
  -7  -7   0   98.55    5.96
 -14  10   0   16.37    2.94
   4 -14   0   21.29    3.24
 -10  -4   0   26.47    3.09
 -14  13   0   76.79    6.27
   1 -14   0   78.47    5.84
  13   1   0   87.39   10.81
 -13  -1   0   78.02    5.80
  14 -13   0   96.71   11.31
 -15   3   0   47.76    4.76
  -3 -12   0   42.86    4.38
 -15   6   0   64.90    5.41
   9 -15   0   57.32    4.69
  -6  -9   0   76.62    5.07
   6 -15   0   51.21    4.45
 -15   9   0   53.75    4.92
  -9  -6   0   52.78    4.41
 -15  12   0   26.96    4.22
   3 -15   0   25.06    3.85
 -12  -3   0   27.57    3.59
  15   0   0  117.76   11.62
 -16   2   0   42.49    4.70
  -2 -14   0   27.20    4.34
 -16   5   0   42.57    4.77
  -5 -11   0   39.14    4.19
 -16   8   0   44.44    4.88
   8 -16   0   45.01    4.26
  -8  -8   0   56.41    4.47
   5 -16   0   26.02    4.02
 -16  11   0   24.14    4.34
 -11  -5   0   24.81    3.63
   2 -16   0   28.36    4.38
 -16  14   0   26.42    4.80
  16 -17   0   26.25    2.72
  -1 -16   0   29.64    4.53
  -1 -16   0   28.61    2.65
 -16  17   0   23.49    3.54
  -1 -16   0   26.30    2.47
 -17   7   0   75.82    6.33
  -7 -10   0   75.54    5.71
 -17  10   0   15.93    3.34
   7 -17   0   15.27    2.96
 -10  -7   0   19.30    2.98
 -17  16   0   28.60    5.03
 -17  16   0   23.09    3.38
   1 -17   0   26.64    2.71
   1 -17   0   25.94    3.85
   1 -17   0   21.97    2.47
  17 -16   0   24.62    2.70
  17 -16   0   24.06    2.68
  15 -18   0   11.93    1.94
  -3 -15   0   16.28    3.19
  -3 -15   0   16.62    2.11
  18  -3   0   17.51    2.17
 -15  18   0   12.14    2.93
  -3 -15   0   18.24    2.46
 -18   6   0   45.27    3.46
  12 -18   0   35.66    3.06
 -18   6   0   48.26    5.25
  18  -6   0   34.00    3.12
  -6 -12   0   42.46    2.85
  -6 -12   0   36.33    4.50
  -6 -12   0   40.48    2.93
 -18   9   0   25.42    3.78
 -18   9   0   20.54    3.71
  18  -9   0   19.62    2.55
  -9  -9   0   19.19    2.10
  -9  -9   0   18.70    3.14
 -18  12   0   21.11    3.07
   6 -18   0   20.29    3.53
 -18  12   0   27.55    4.77
  18 -12   0   30.62    2.60
 -12  -6   0   29.96    4.16
 -12  -6   0   28.94    2.29
 -18  15   0   36.54    5.44
   3 -18   0   34.79    4.93
   3 -18   0   33.21    2.88
 -18  15   0   30.70    3.32
  18 -15   0   31.66    2.90
 -15  -3   0   25.36    2.73
  18 -15   0   33.04    2.86
   0 -18   0   22.43    2.47
 -18  18   0   22.76    3.12
   0 -18   0   21.74    2.66
  18 -18   0   17.67    2.52
  17 -19   0   18.90    2.58
  -2 -17   0   25.64    2.49
 -17  19   0   24.06    3.26
  -2 -17   0   28.15    2.71
 -19   5   0   17.48    3.66
  14 -19   0    9.62    1.81
 -19   5   0   13.06    2.22
  -5 -14   0   16.76    1.99
  19  -5   0   10.94    1.98
  -5 -14   0   13.38    1.74
 -14  19   0    9.12    2.83
  -5 -14   0    9.83    2.98
 -19   8   0   15.67    2.59
  11 -19   0   11.85    1.81
 -19   8   0   17.12    3.64
  19  -8   0   16.06    2.35
  -8 -11   0   17.71    3.19
 -11  19   0    4.03    4.58
  -8 -11   0   20.27    2.06
 -19  11   0   11.58    3.49
 -19  11   0    9.71    2.30
 -11  -8   0   13.81    1.88
 -11  -8   0   15.80    3.06
  19 -11   0   16.29    2.21
 -19  14   0   57.49    4.24
 -19  14   0   60.00    6.15
   5 -19   0   55.61    5.69
   5 -19   0   49.05    3.85
  19 -14   0   56.51    3.77
 -14  -5   0   58.53    3.47
  19 -14   0   55.81    3.73
   2 -19   0   17.87    2.34
 -19  17   0   13.09    2.62
   2 -19   0   20.41    2.49
  19 -17   0   14.92    2.40
  19 -17   0   13.46    2.04
  19 -20   0    2.83    1.74
 -19  20   0    0.13    2.21
  -1 -19   0    2.83    1.55
  -1 -19   0    3.83    1.77
  16 -20   0   17.01    2.39
 -16  20   0   15.46    2.88
  -4 -16   0   21.16    2.30
  -4 -16   0   20.38    2.53
  20  -4   0   16.97    2.69
 -20   7   0    6.99    1.95
  13 -20   0    5.35    1.61
 -20   7   0   11.79    3.42
  -7 -13   0    6.63    1.52
  -7 -13   0    5.52    1.65
 -13  20   0   -0.28    2.62
  -7 -13   0    6.03    2.78
  20  -7   0    5.06    1.77
  10 -20   0    9.27    2.10
 -20  10   0   13.66    3.60
 -20  10   0   11.38    2.25
 -10 -10   0   12.92    1.95
  20 -10   0   13.46    2.32
 -10 -10   0   17.34    3.14
 -20  13   0   18.03    2.76
 -20  13   0   18.81    4.03
   7 -20   0   16.53    2.33
  20 -13   0   21.35    2.48
 -13  -7   0   22.35    2.09
 -20  16   0   11.71    2.39
   4 -20   0   13.33    2.08
  20 -16   0   14.31    2.39
 -16  -4   0   10.20    1.66
  20 -16   0   11.43    1.96
   1 -20   0    1.99    1.79
   1 -20   0    3.09    1.55
 -20  19   0    1.09    2.15
  20 -19   0    0.84    1.72
  20 -19   0    1.38    1.63
  18 -21   0    4.95    1.71
  -3 -18   0    3.19    1.73
  -3 -18   0    4.85    1.61
 -18  21   0    3.14    2.24
  15 -21   0    5.33    1.68
 -21   6   0    7.02    1.95
  -6 -15   0   10.55    1.80
  21  -6   0    9.41    1.94
 -15  21   0    5.77    2.53
  -6 -15   0    9.50    1.69
 -21   9   0   14.17    2.17
  12 -21   0    8.95    1.71
  -9 -12   0   14.08    2.03
  21  -9   0   13.09    1.95
 -21  12   0    9.50    2.18
   9 -21   0    5.98    2.06
  21 -12   0   13.53    2.37
 -12  -9   0   10.43    1.49
   6 -21   0   19.77    2.60
 -21  15   0   19.90    2.78
  21 -15   0   19.51    2.53
 -15  -6   0   20.35    1.99
  21 -15   0   21.94    2.58
   3 -21   0    9.51    1.92
 -21  18   0    6.95    2.23
  21 -18   0    7.10    1.88
  21 -18   0    8.69    1.83
   0 -21   0    2.92    1.67
   0 -21   0    1.77    1.37
 -21  21   0    2.31    1.93
  21 -21   0    2.30    1.67
  20 -22   0    1.24    1.60
 -20  22   0    1.20    1.94
  -2 -20   0    2.09    1.48
  -2 -20   0    1.80    1.60
  17 -22   0    9.02    1.78
 -17  22   0    8.91    2.33
  22  -5   0   11.85    1.91
  -5 -17   0   14.96    2.22
  -5 -17   0   13.82    2.22
 -22   8   0   15.44    2.17
  14 -22   0   11.52    1.79
 -14  22   0    9.09    2.46
  -8 -14   0   19.50    2.28
  22  -8   0   14.95    2.56
  -8 -14   0   18.64    2.11
  11 -22   0   14.59    2.36
 -22  11   0   14.76    2.34
  11 -22   0   11.66    1.72
  22 -11   0   11.64    1.94
 -11 -11   0   12.71    2.02
   8 -22   0   15.08    2.49
 -22  14   0   15.42    2.55
  22 -14   0   20.46    2.59
 -14  -8   0   17.73    1.90
   5 -22   0    3.72    1.78
 -22  17   0    3.39    1.94
  22 -17   0    5.08    1.76
  22 -17   0    3.73    1.70
 -17  -5   0    3.26    1.06
   2 -22   0    6.41    1.73
 -22  20   0    5.18    1.91
  22 -20   0    3.05    1.55
  22 -20   0    3.91    1.69
  22 -23   0    2.72    1.60
 -22  23   0    2.30    1.56
  -1 -22   0    3.42    1.46
  -1 -22   0    3.34    1.23
  19 -23   0    5.42    1.62
 -19  23   0    3.11    1.87
  -4 -19   0    5.62    1.55
  -4 -19   0    4.52    1.52
  16 -23   0   13.91    2.17
  23  -7   0   15.91    2.46
  -7 -16   0   20.06    2.29
  -7 -16   0   18.32    2.10
 -16  23   0   10.25    2.24
  13 -23   0    7.31    1.57
 -23  10   0    9.77    1.85
 -10 -13   0    9.64    1.63
  23 -10   0    7.02    1.82
  10 -23   0    6.46    2.02
 -23  13   0    6.01    1.86
 -13 -10   0    9.00    1.43
  23 -13   0    8.45    1.82
   7 -23   0   11.60    2.00
 -23  16   0   12.72    2.17
 -16  -7   0   11.83    1.67
  23 -16   0   17.01    2.43
 -23  19   0    2.32    1.73
   4 -23   0    3.18    1.64
  23 -19   0    1.84    1.57
  23 -19   0    3.02    1.63
 -23  22   0    5.19    1.59
  23 -22   0    8.67    1.66
  21 -24   0    2.72    1.60
  -3 -21   0    3.09    1.21
  -3 -21   0    3.27    1.34
 -21  24   0    2.20    1.48
  18 -24   0    8.95    1.63
  -6 -18   0   10.73    1.67
  24  -6   0    7.58    1.62
  -6 -18   0   11.17    1.79
 -18  24   0    5.78    1.78
 -24   9   0   10.98    1.83
  15 -24   0    8.74    1.57
  24  -9   0   15.47    2.35
 -24  12   0    6.80    1.71
  24 -12   0    7.76    1.80
 -12 -12   0    9.18    1.51
   9 -24   0   13.44    2.03
 -24  15   0    9.77    1.85
  24 -15   0   11.84    1.92
 -15  -9   0   12.41    1.66
 -24  18   0    2.40    1.51
   6 -24   0    3.13    1.64
  24 -18   0    2.87    1.46
  24 -18   0    3.60    1.60
 -24  21   0    3.33    1.47
   3 -24   0    4.41    1.54
  24 -21   0    4.61    1.49
  24 -21   0    4.55    1.99
  20 -25   0    5.17    1.61
  -5 -20   0    5.19    1.24
  -5 -20   0    3.94    1.30
  17 -25   0    6.72    1.48
  25  -8   0    6.33    1.59
  -8 -17   0    7.69    1.54
  14 -25   0    4.21    1.36
 -25  11   0    3.71    1.38
 -11 -14   0    8.44    1.47
  25 -11   0    6.83    1.67
  11 -25   0    4.62    1.69
 -25  14   0    5.77    1.51
  25 -14   0    5.64    1.67
 -14 -11   0    8.41    1.32
 -25  17   0    3.19    1.37
   8 -25   0    4.19    1.61
  25 -17   0    5.14    1.61
 -17  -8   0    4.30    1.02
   5 -25   0    2.87    1.51
 -25  20   0    0.46    1.32
  25 -20   0    2.60    1.26
  25 -20   0    2.59    1.35
  19 -26   0    2.04    1.48
  -7 -19   0    3.14    1.36
  16 -26   0    2.94    1.29
  26 -10   0    3.89    1.47
 -10 -16   0    4.86    1.37
 -26  13   0    2.72    1.20
 -13 -13   0    4.69    1.22
  26 -13   0    3.84    1.52
  10 -26   0    6.36    1.48
 -26  16   0    5.65    1.33
  26 -16   0    5.82    1.59
 -16 -10   0    7.92    1.14
 -26  19   0    1.91    1.31
   7 -26   0    2.71    1.50
  26 -19   0    2.72    1.42
 -12 -15   0    3.77    1.28
  27 -12   0    3.04    1.60
 -27  15   0    2.25    1.17
 -15 -12   0    4.27    1.11
  27 -15   0    3.11    1.59
   0  -1   1  267.04   13.99
   1   0   1  268.59   13.84
   3  -2  -1 1000.00   48.14
   2   1   1  919.43   48.02
  -3   2   1  976.66   48.03
   1  -3   1  921.43   48.39
   2  -2   1  240.95   12.88
  -2   0   1  242.71   12.84
   5  -3  -1  954.98   46.31
  -3  -2  -1  936.22   45.66
  -5   3   1  887.96   45.81
   2  -5   1  903.44   46.53
   3   2   1  884.10   45.80
  -5   3   1  896.83   45.85
  -3   1  -1  157.32    8.49
  -2   3   1  175.30    8.50
   3  -1   1  147.84    8.73
  -2   3   1  162.39    8.53
  -1  -2   1  155.11    8.93
  -1  -3  -1  618.16   34.24
   4  -1  -1  626.12   34.78
  -4   1   1  685.56   34.39
   1   3   1  702.16   34.39
  -4   1   1  723.97   34.39
   3  -4   1  736.21   35.08
   7  -4  -1  184.49   10.61
  -4  -3  -1  174.47    9.24
  -4  -3  -1  176.09    9.13
   4   3   1  174.03    9.31
   3  -7   1  166.33    9.13
  -7   4   1  174.27    9.51
   3  -7   1  179.60   10.51
  -7   4   1  170.94    9.36
   0  -4   1   24.62    2.14
  -4   4   1   29.42    2.42
  -4   4   1   28.63    2.43
   0  -4   1   27.82    3.30
   3   1  -1  158.60    9.99
  -4   3  -1  168.60    9.18
   1  -4  -1  171.57    9.19
  -3  -1   1  182.56    9.26
   4  -3   1  189.75    9.99
  -1   4   1  187.52    9.33
  -2  -4  -1  454.63   25.61
   6  -2  -1  466.35   26.38
  -6   2   1  514.71   25.79
   4  -6   1  546.23   26.72
  -6   2   1  539.67   25.84
   2   4   1  521.56   25.76
   9  -5  -1  127.56    9.66
  -5  -4  -1  140.96    7.79
  -5  -4  -1  139.79    7.81
  -9   5   1  143.78    8.29
   4  -9   1  151.55    7.80
  -9   5   1  149.22    8.04
   4  -9   1  157.08    9.52
  -5  -1  -1  286.43   14.10
   6  -5  -1  320.32   15.24
  -5  -1  -1  280.86   14.29
   1  -6   1  267.22   15.22
   1  -6   1  262.52   14.21
  -6   5   1  266.13   14.34
  -6   5   1  279.43   14.45
   5   1   1  250.10   14.73
   3  -5  -1  118.45    7.74
  -2  -3   1  158.35    8.68
  -2  -3   1  146.38    7.74
  -3   5   1  160.15    7.91
   5  -2   1  147.49    8.52
  -5   5  -1   21.50    2.29
   0  -5  -1   22.71    2.06
   0   5   1   27.00    2.22
  -5   0   1   22.23    2.17
   5  -5   1   24.04    3.58
  -5   0   1   20.70    2.22
   8  -3  -1  292.69   16.12
  -5   8  -1  260.92   14.61
  -3  -5  -1  272.23   14.66
  -8   3   1  294.77   14.97
   3   5   1  297.75   14.76
  -8   3   1  291.49   14.84
   5  -8   1  297.37   16.03
   5  -8   1  267.92   14.52
  11  -6  -1   24.55    5.39
  -6  -5  -1   24.61    2.55
  -6  -5  -1   24.90    2.50
 -11   6   1   22.35    3.34
   5 -11   1   24.96    5.02
 -11   6   1   26.01    3.00
   5 -11   1   24.74    2.59
  -6  -2  -1  368.88   19.31
  -6  -2  -1  386.12   19.49
   8  -6  -1  384.32   20.50
  -8   6   1  393.14   19.76
   2  -8   1  367.27   19.40
   2  -8   1  374.45   20.62
  -8   6   1  380.89   19.54
   6   2   1  376.68   20.07
   5  -6  -1   45.78    3.31
  -6   1  -1   52.25    3.26
  -5   6   1   43.74    3.37
  -5   6   1   45.47    3.36
   6  -1   1   45.69    4.17
  -1  -5   1   54.08    4.47
  -1  -5   1   50.66    3.20
  -6   4  -1   66.26    4.29
   4   2  -1   61.28    5.33
  -2   6   1   86.17    4.41
  -7   1   1   21.95    2.35
   1   6   1   20.33    2.13
  -7   1   1   19.85    2.34
   6  -7   1   19.56    3.75
  -4  -6  -1  380.80   20.85
  10  -4  -1  389.23   22.93
  -4  -6  -1  408.37   20.97
 -10   4   1  421.24   21.35
   6 -10   1  395.46   20.83
   6 -10   1  440.37   22.69
 -10   4   1  422.79   21.13
  13  -7  -1   49.39    6.94
  -7  -6  -1   35.11    3.36
   6 -13   1   39.73    3.28
   6 -13   1   42.54    7.01
 -13   7   1   36.29    4.05
 -13   7   1   39.89    3.71
  -7  -3  -1  106.14    6.40
  -7  -3  -1  106.01    6.21
  10  -7  -1   93.10    8.07
   3 -10   1  116.11    8.19
 -10   7   1  108.83    6.88
   3 -10   1  116.42    6.39
   7   3   1  120.74    7.59
 -10   7   1  112.28    6.55
   7  -7  -1  146.30    8.71
  -7   0  -1  139.11    7.64
  -7   0  -1  151.51    7.93
  -7   7   1  140.40    7.96
   0  -7   1  141.98    7.83
   0  -7   1  140.06    9.04
   7   0   1  143.26    8.75
  -7   7   1  145.28    8.12
   4  -7  -1  139.81    7.83
  -7   3  -1  135.60    7.88
  -4   7   1  151.19    7.94
  -3  -4   1  158.75    8.94
   7  -3   1  139.08    8.83
  -3  -4   1  143.89    7.78
   6   1  -1  130.38    7.91
  -7   6  -1  112.69    6.78
   1  -7  -1  130.73    6.60
  -1   7   1  118.70    6.68
  -6  -1   1  113.45    6.52
   7  -6   1  115.07    7.91
  -6  -1   1  114.24    6.66
  -2  -7  -1   14.61    2.09
  -7   9  -1   12.59    2.25
  -9   2   1    9.42    1.96
  -9   2   1   11.57    1.92
   2   7   1   12.15    1.95
  -5  -7  -1   49.46    3.83
  12  -5  -1   50.72    7.23
   7 -12   1   58.99    7.13
 -12   5   1   56.57    4.61
 -12   5   1   55.18    4.23
  -8  -7  -1   43.87    3.78
 -15   8   1   42.85    4.67
   7 -15   1   41.92    8.06
  -8  -4  -1   68.81    4.79
  -8  -4  -1   65.53    4.43
  12  -8  -1   73.62    7.07
 -12   8   1   68.14    4.82
 -12   8   1   70.40    5.26
   4 -12   1   65.69    6.94
   4 -12   1   66.73    4.68
  -8  -1  -1  144.96    8.24
   9  -8  -1  149.01    8.19
   9  -8  -1  133.84    9.32
   1  -9   1  151.47    9.67
  -9   8   1  144.49    8.52
  -9   8   1  147.25    8.26
   8   1   1  142.30    9.22
   1  -9   1  153.18    8.15
  -8   2  -1  107.51    6.60
   6  -8  -1  102.23    6.50
  -2  -6   1  120.01    7.68
   8  -2   1  123.81    7.72
  -6   8   1  119.76    6.66
  -2  -6   1  116.98    6.47
   5   3  -1   27.04    4.09
  -8   5  -1   25.43    3.04
   3  -8  -1   31.67    2.61
  -3   8   1   33.21    2.79
  -5  -3   1   29.30    2.61
   8  -5   1   30.98    4.23
   0  -8  -1    8.91    1.53
  -8   8  -1    8.26    1.76
   8   0  -1    6.24    1.71
  -8   0   1    3.16    1.46
  11  -3  -1  242.62   16.26
  -3  -8  -1  238.74   13.45
 -11   3   1  266.14   13.72
 -11   3   1  265.73   13.90
   8 -11   1  260.33   15.53
  -6  -8  -1   53.21    4.08
   8 -14   1   50.26    7.96
 -14   6   1   48.20    4.71
  -9  -5  -1   17.14    2.56
 -14   9   1   17.24    2.98
   5 -14   1   19.45    2.97
   5 -14   1   12.17    2.68
  -9  -2  -1   32.29    3.66
  11  -9  -1   30.25    3.44
  11  -9  -1   31.54    5.12
   2 -11   1   35.59    5.46
 -11   9   1   32.02    3.94
 -11   9   1   35.01    3.53
   2 -11   1   37.09    3.43
   8  -9  -1  145.86    8.66
  -9   1  -1  167.77    8.91
  -8   9   1  151.10    8.93
  -1  -8   1  157.03    8.62
   9  -1   1  157.32    9.98
  -1  -8   1  153.69    9.98
   5  -9  -1   46.02    3.48
  -9   4  -1   39.76    3.94
   4   5  -1   40.91    4.77
  -5   9   1   55.07    3.68
  -4  -5   1   50.68    3.41
   9  -4   1   48.22    5.17
  -9   7  -1   19.48    2.95
   2  -9  -1   19.01    2.58
   9  -7   1   23.55    4.71
  -7  -2   1   30.32    2.35
  -7  -2   1   28.94    2.81
  -2   9   1   27.81    2.73
  -1  -9  -1  213.39   11.63
  10  -1  -1  246.61   14.07
  -9  10  -1  224.72   11.77
 -10   1   1  214.30   11.79
 -10   1   1  195.24   11.75
   9 -10   1  204.46   13.60
  -4  -9  -1   97.07    6.33
  13  -4  -1  102.88   11.29
   9 -13   1  108.25   10.01
 -13   4   1  106.02    6.88
 -13   4   1  106.71    6.65
  -7  -9  -1   28.65    3.50
 -16   7   1   23.24    4.31
  19 -10  -1    9.78    1.77
 -10  -9  -1   10.55    1.62
 -10  -9  -1   12.34    1.56
   9 -19   1    2.90    2.79
 -19  10   1    8.85    3.43
   9 -19   1    7.58    2.07
 -19  10   1    7.25    2.05
 -10  -3  -1   44.61    4.42
  13 -10  -1   46.67    4.03
   3 -13   1   49.21    4.17
 -13  10   1   46.65    4.69
   3 -13   1   45.23    6.95
 -10   0  -1   78.15    5.43
  10 -10  -1   76.00    6.38
  10 -10  -1   86.93    5.15
 -10  10   1   66.91    5.44
  10   0   1   64.87    6.38
   0 -10   1   66.58    4.92
   0 -10   1   65.13    6.66
   7 -10  -1  145.39    8.22
 -10   3  -1  132.45    8.59
  -3  -7   1  151.99    9.59
  -7  10   1  146.17    8.36
  10  -3   1  142.13    9.65
  -3  -7   1  153.22    8.17
   4 -10  -1   34.59    3.26
   6   4  -1   35.90    5.16
 -10   6  -1   34.14    3.89
  10  -6   1   39.53    5.34
  -4  10   1   41.46    3.35
  -6  -4   1   46.75    3.41
   9   1  -1   47.42    6.50
   1 -10  -1   48.62    4.16
  10  -9   1   62.43    6.71
  -9  -1   1   63.60    4.27
  -9  -1   1   63.47    4.06
 -10  12  -1   98.94    6.95
  -2 -10  -1  106.64    6.14
  12  -2  -1   98.30   11.97
 -12   2   1   94.26    6.40
 -12   2   1   94.98    6.38
  10 -12   1   96.40   10.00
  -5 -10  -1   42.58    4.09
 -15   5   1   48.45    4.86
  -8 -10  -1   13.71    1.81
  18  -8  -1   13.69    1.83
  -8 -10  -1   15.32    1.91
  -8 -10  -1   14.51    2.70
 -18   8   1   14.42    2.15
 -18   8   1   12.56    3.43
  10 -18   1    6.48    2.87
  10 -18   1    9.48    1.75
  10 -18   1   12.82    2.09
  21 -11  -1    5.37    1.68
 -11 -10  -1    7.22    1.43
  10 -21   1    4.99    2.06
 -21  11   1    5.18    1.88
  10 -21   1    3.15    2.61
  18 -11  -1   16.15    2.38
 -11  -7  -1   16.12    1.89
 -18  11   1   17.26    2.39
   7 -18   1   12.77    2.09
 -18  11   1   13.30    3.64
   4 -15   1   40.94    4.26
 -15  11   1   38.52    4.87
  12 -11  -1   50.77    6.54
  12 -11  -1   33.94    3.66
 -11  -1  -1   28.33    4.23
   1 -12   1   46.27    4.01
   1 -12   1   42.10    6.32
 -12  11   1   38.19    4.52
   9 -11  -1   59.76    5.60
 -11   2  -1   55.37    5.15
   9 -11  -1   64.78    4.56
  11  -2   1   60.61    6.13
  -2  -9   1   60.30    6.27
  -9  11   1   54.36    4.75
  -2  -9   1   61.35    4.43
   5   6  -1  116.74    8.81
   6 -11  -1  123.51    7.48
 -11   5  -1  119.76    7.95
  11  -5   1  133.08    9.29
  -5  -6   1  138.90    7.50
  -6  11   1  137.64    7.58
   8   3  -1   49.24    6.41
   3 -11  -1   54.69    4.09
 -11   8  -1   51.36    4.44
  11  -8   1   52.78    6.49
  -8  -3   1   59.63    4.22
   0 -11  -1  139.17    7.93
 -11  11  -1  136.32    8.11
  11   0  -1  126.88   12.58
  11 -11   1  136.48   11.53
 -11   0   1  143.15    8.22
 -11   0   1  138.46    8.02
  -3 -11  -1   26.08    3.23
  14  -3  -1   21.82    4.18
 -14   3   1   23.08    3.66
  11 -14   1   13.61    3.59
 -14   3   1   17.25    2.87
  17  -6  -1  139.86   13.70
  -9 -11  -1   22.39    3.33
  -9 -11  -1   22.25    2.12
  -9 -11  -1   21.49    2.17
  20  -9  -1   20.83    2.40
  11 -20   1   15.96    2.40
  11 -20   1   16.56    2.36
 -20   9   1   17.54    2.49
  11 -20   1   13.68    3.00
 -20   9   1   21.42    4.13
 -12 -11  -1    8.00    1.40
  23 -12  -1    5.63    1.72
 -23  12   1    5.55    1.70
  11 -23   1    1.33    2.50
  11 -23   1    6.33    1.95
  20 -12  -1   14.57    2.33
 -12  -8  -1   15.11    1.91
 -20  12   1   14.46    2.53
   8 -20   1   11.20    3.00
   8 -20   1   13.94    2.18
 -20  12   1   14.41    3.85
 -12  -2  -1   30.81    4.36
   2 -14   1   42.89    4.31
 -14  12   1   36.59    4.93
 -12   1  -1   47.27    4.91
  11 -12  -1   51.33    6.09
  11 -12  -1   51.59    4.26
  -1 -11   1   49.61    6.71
  -1 -11   1   51.31    4.31
 -11  12   1   49.29    4.72
   4   8  -1  180.36   10.94
   8 -12  -1  167.38    9.48
 -12   4  -1  169.45    9.99
  -8  12   1  160.31    9.58
  -4  -8   1  167.32    9.42
  12  -4   1  156.09   11.26
   7   5  -1   25.75    6.46
 -12   7  -1   29.99    3.92
   5 -12  -1   32.51    3.40
  -7  -5   1   33.89    3.35
  -5  12   1   36.47    3.66
  12  -7   1   32.83    5.86
 -12  10  -1   18.79    3.22
   2 -12  -1   18.76    3.01
 -10  -2   1   16.07    2.49
  -1 -12  -1   25.00    3.27
 -12  13  -1   27.32    3.43
  12 -13   1   17.99    4.20
 -13   1   1   26.87    3.23
 -13   1   1   25.68    3.83
  -4 -12  -1   16.42    2.80
 -16   4   1   12.95    3.05
  -7 -12  -1   17.20    1.96
  -7 -12  -1   17.07    2.15
  -7 -12  -1   17.97    3.01
  19  -7  -1   12.17    2.22
  12 -19   1   14.46    2.20
 -19   7   1   15.77    2.57
 -19   7   1   17.40    3.78
  12 -19   1   12.29    2.96
  12 -19   1   15.14    2.30
  22 -10  -1   12.76    1.94
 -10 -12  -1   12.28    1.89
 -12  22  -1    8.62    2.82
 -10 -12  -1   14.72    1.93
  12 -22   1   12.52    2.21
  12 -22   1    8.53    2.45
 -22  10   1   11.66    1.98
  25 -13  -1    7.18    1.64
 -13 -12  -1    8.20    1.31
  12 -25   1    4.83    1.64
 -25  13   1    4.25    1.39
 -13  -9  -1    7.65    1.34
  22 -13  -1    6.68    1.73
   9 -22   1    5.17    2.00
 -22  13   1    5.06    1.88
 -13  -6  -1    6.66    1.32
  19 -13  -1    7.37    1.84
   6 -19   1    6.16    1.89
 -19  13   1    8.06    2.13
 -19  13   1   10.93    3.68
 -16  13   1   11.44    3.64
   3 -16   1    8.62    2.86
 -13   0  -1   32.73    4.35
   0 -13   1   37.07    4.10
   0 -13   1   35.76    9.76
 -13  13   1   31.98    4.82
  10 -13  -1   32.01    3.63
 -13   3  -1   32.06    4.24
 -10  13   1   23.61    3.80
  -3 -10   1   26.27    3.37
   6   7  -1   92.26    8.50
   7 -13  -1   77.78    5.79
  -7  13   1   85.96    5.84
  13  -6   1   99.65    9.06
  -6  -7   1   87.67    5.83
   4 -13  -1    9.70    2.24
 -13   9  -1    8.38    2.38
  -9  -4   1    7.77    2.11
  13  -9   1    6.28    2.54
   1 -13  -1   74.90    5.10
 -13  12  -1   68.91    5.30
  13 -12   1   71.63   10.75
 -12  -1   1   64.73    5.43
  -2 -13  -1   37.59    4.20
  15  -2  -1   60.67   12.12
 -15   2   1   43.79    4.52
  -5 -13  -1   12.12    1.59
  18  -5  -1    8.75    1.76
  -5 -13  -1   12.41    1.77
 -18   5   1   13.64    3.42
 -18   5   1   11.96    2.06
  13 -18   1   10.20    1.74
  13 -18   1    6.51    2.68
  -8 -13  -1   26.68    2.37
  -8 -13  -1   26.59    2.31
  21  -8  -1   22.08    2.69
 -13  21  -1   22.66    3.56
  13 -21   1   21.94    3.10
  13 -21   1   22.40    2.46
  13 -21   1   27.56    3.64
 -21   8   1   21.56    2.52
 -11 -13  -1   11.93    1.81
 -13  24  -1    5.90    2.10
  24 -11  -1    9.63    1.76
  13 -24   1    7.47    1.77
 -24  11   1    8.12    1.62
 -14 -10  -1    2.55    1.15
  24 -14  -1    3.02    1.56
  10 -24   1    1.48    1.78
 -24  14   1    2.00    1.45
  21 -14  -1    2.36    1.66
 -14  -7  -1    3.01    1.18
 -21  14   1    3.39    1.91
   7 -21   1    1.86    1.86
  18 -14  -1    2.13    1.72
 -14  -4  -1    5.86    1.25
  18 -14  -1    4.36    1.84
   4 -18   1    6.78    1.68
 -18  14   1    6.61    3.59
 -18  14   1    4.95    2.12
 -18  14   1    5.19    1.69
   4 -18   1    7.56    1.83
   4 -18   1    7.22    2.95
 -14  -1  -1   15.56    2.97
   1 -15   1   13.50    2.98
 -15  14   1   11.43    3.67
  14  -2   1  100.12    9.15
 -14   5  -1   75.67    5.79
   9 -14  -1   76.96    5.44
  -5  -9   1   69.47    5.15
  -9  14   1   67.70    5.47
   8   6  -1   79.09    9.36
   6 -14  -1   56.56    4.95
 -14   8  -1   56.56    5.16
  14  -8   1   72.10    9.10
  -8  -6   1   60.69    4.90
 -14  11  -1   56.00    4.92
   3 -14  -1   56.23    4.63
  14 -11   1   61.14   10.23
 -11  -3   1   49.62    4.73
 -14  14  -1   20.67    3.59
   0 -14  -1   12.61    2.66
  14 -14   1   11.39    4.27
 -14   0   1   10.13    2.87
  -3 -14  -1   12.22    1.74
  -3 -14  -1   10.56    2.82
  -3 -14  -1   11.52    1.53
  14 -17   1    6.16    1.67
  14 -17   1    6.90    2.53
 -17   3   1    9.53    1.99
  20  -6  -1   14.68    2.54
  -6 -14  -1   19.49    2.25
  -6 -14  -1   17.79    2.12
 -14  20  -1   17.11    3.22
 -20   6   1   17.60    2.44
  14 -20   1   18.97    2.30
  14 -20   1   16.31    2.94
 -14  23  -1   10.43    2.55
  -9 -14  -1   17.54    2.01
  23  -9  -1   15.56    2.35
  -9 -14  -1   16.82    1.99
  14 -23   1   14.27    2.08
 -23   9   1   13.57    2.01
  26 -12  -1    3.30    1.47
 -12 -14  -1    3.35    1.21
 -26  12   1    2.31    1.16
  26 -15  -1    1.05    1.45
 -15 -11  -1    1.75    1.05
 -26  15   1    0.78    1.19
  11 -26   1    0.02    1.32
 -15  -8  -1    1.94    1.13
  23 -15  -1    3.96    1.63
   8 -23   1    0.79    1.80
 -23  15   1    2.25    1.67
  20 -15  -1   10.80    1.95
  20 -15  -1   10.82    1.99
 -15  -5  -1   10.58    1.65
   5 -20   1    8.71    1.96
 -20  15   1    9.08    2.26
   5 -20   1   11.07    1.89
  17 -15  -1   49.39    3.40
  17 -15  -1   48.64    3.63
 -15  -2  -1   51.58    3.06
   2 -17   1   47.45    3.45
   2 -17   1   42.30    3.35
   2 -17   1   49.33    5.28
 -17  15   1   43.57    3.52
 -17  15   1   47.33    5.96
 -17  15   1   44.31    3.84
  15  -4   1   80.13    8.86
 -15   7  -1   44.34    4.79
   8 -15  -1   43.37    4.47
  -7  -8   1   41.51    4.28
  10   5  -1   38.00    5.95
   5 -15  -1   54.22    4.69
 -15  10  -1   48.91    4.89
 -10  -5   1   53.22    4.67
   2 -15  -1   42.66    4.40
 -15  13  -1   43.06    4.64
  15 -13   1   54.12   10.97
 -13  -2   1   39.97    4.82
 -15  16  -1   11.06    2.75
  -1 -15  -1   16.35    2.18
  -1 -15  -1   11.83    2.91
  -1 -15  -1   12.59    2.03
  15 -16   1   12.38    1.78
  15 -16   1   10.39    2.37
 -16   1   1   17.11    2.73
  -4 -15  -1    5.59    2.77
  -4 -15  -1    4.06    1.67
  -4 -15  -1    3.74    1.39
 -15  19  -1    4.23    2.85
  15 -19   1    3.61    1.59
 -19   4   1    4.35    1.77
  -7 -15  -1   16.14    2.05
  -7 -15  -1   16.03    2.17
  22  -7  -1   12.17    1.96
 -15  22  -1   13.26    2.75
 -22   7   1   12.18    2.00
  15 -22   1   11.83    1.77
  25 -10  -1    5.07    1.59
 -10 -15  -1    5.20    1.37
 -10 -15  -1    6.74    1.35
 -15  25  -1    2.52    1.71
 -25  10   1    4.12    1.27
  15 -25   1    3.98    1.60
  25 -16  -1    2.07    1.47
 -16  -9  -1    2.37    1.03
   9 -25   1    0.83    1.55
 -25  16   1    1.75    1.32
 -16  -6  -1   19.42    1.83
 -22  16   1   16.17    2.46
   6 -22   1   16.90    2.47
 -16  -3  -1   18.79    1.98
  19 -16  -1   23.56    2.54
  19 -16  -1   26.17    2.81
   3 -19   1   26.07    2.56
 -19  16   1   26.31    2.93
   3 -19   1   28.12    2.68
 -16   0  -1   50.47    3.17
  16 -16  -1   52.16    3.60
   0 -16   1   54.10    5.48
   0 -16   1   51.69    3.59
 -16  16   1   47.46    3.96
   0 -16   1   47.48    3.42
 -16  16   1   46.01    5.90
 -16  16   1   45.49    3.65
  16  -6   1   81.98    9.71
   7 -16  -1   42.07    4.79
 -16   9  -1   47.62    5.13
   9   7  -1   49.24    9.88
  -9  -7   1   50.58    4.82
 -16  12  -1   64.34    5.86
   4 -16  -1   66.61    5.54
 -12  -4   1   72.03    5.83
   1 -16  -1    9.83    1.75
 -16  15  -1   14.30    3.52
   1 -16  -1    8.81    2.82
 -16  15  -1   10.35    2.67
  16 -15   1    8.72    1.72
  -2 -16  -1    3.16    1.67
  -2 -16  -1    2.79    1.38
 -16  18  -1    2.85    2.69
  -2 -16  -1    3.43    2.77
  16 -18   1    2.56    1.60
 -18   2   1    3.56    1.71
  -5 -16  -1   10.90    1.62
 -16  21  -1    8.04    2.68
  -5 -16  -1   11.13    1.85
 -21   5   1    6.77    1.70
  16 -21   1    6.46    1.67
 -16  24  -1    2.81    1.99
  -8 -16  -1    4.61    1.39
  -8 -16  -1    5.42    1.38
  24  -8  -1    3.50    1.58
  16 -24   1    3.18    1.42
 -24   8   1    2.73    1.30
  24 -17  -1    4.68    1.61
 -17  -7  -1    3.43    1.02
 -24  17   1    1.71    1.49
   7 -24   1    1.61    1.67
  21 -17  -1   29.74    2.73
  21 -17  -1   33.10    2.84
 -17  -4  -1   26.02    2.19
 -21  17   1   28.61    2.92
   4 -21   1   29.62    2.75
  18 -17  -1   12.80    2.05
 -17  -1  -1   12.27    1.71
  18 -17  -1   16.30    2.57
 -18  17   1   18.93    2.91
   1 -18   1   24.96    4.63
 -18  17   1   16.57    5.65
   1 -18   1   19.51    2.33
  15 -17  -1   32.06    2.81
  -2 -15   1   29.45    2.71
  -2 -15   1   29.43    4.67
  -2 -15   1   25.70    2.54
 -15  17   1   23.11    3.71
 -15  17   1   26.57    3.09
 -15  17   1   29.11    5.10
  17  -2   1   27.26    3.00
   9 -17  -1   19.10    3.36
 -17   8  -1   18.48    3.65
  -8  -9   1   25.86    4.19
 -17  11  -1   27.01    4.80
   6 -17  -1   24.97    4.32
 -11  -6   1   34.81    4.53
   3 -17  -1   22.31    3.54
 -17  14  -1   20.27    3.12
 -17  14  -1   30.71    4.77
   3 -17  -1   19.31    2.57
  17 -14   1   23.82    2.65
 -14  -3   1   22.16    3.71
  17 -14   1   24.31    2.53
   0 -17  -1    9.93    3.10
 -17  17  -1    9.96    2.66
   0 -17  -1   12.24    2.40
   0 -17  -1   13.18    1.96
  17 -17   1   10.43    1.83
 -17   0   1   11.96    1.95
  -3 -17  -1    6.20    1.47
  -3 -17  -1    7.49    1.84
 -17  20  -1    7.83    2.65
 -20   3   1    5.33    1.65
  17 -20   1    5.01    1.67
 -17  23  -1    8.04    2.28
 -23   6   1    5.76    1.42
  17 -23   1    6.25    1.56
 -17  26  -1    0.60    1.34
  -9 -17  -1    3.24    0.98
  -9 -17  -1    2.46    1.26
  26  -9  -1    1.31    1.37
  17 -26   1    0.71    1.20
 -26   9   1    1.30    0.93
  26 -18  -1    1.73    1.46
 -18  -8  -1    1.70    0.92
   8 -26   1    0.02    1.45
 -26  18   1    2.06    1.32
 -18  -5  -1    3.80    1.01
  23 -18  -1    3.95    1.62
 -23  18   1    3.34    1.68
   5 -23   1    2.45    1.70
 -18  -2  -1   17.17    1.85
  20 -18  -1   25.50    2.68
  20 -18  -1   22.27    2.53
   2 -20   1   25.36    2.59
   2 -20   1   23.86    2.50
 -20  18   1   23.14    2.81
  17 -18  -1    5.20    1.82
  17 -18  -1    3.19    1.93
 -17  18   1    4.56    2.24
  -1 -17   1    8.18    1.71
  -1 -17   1   11.14    3.91
  -1 -17   1    9.41    1.82
  18  -1   1    5.87    1.96
 -18   4  -1   14.53    3.45
  14 -18  -1    7.38    1.95
  -4 -14   1   10.55    1.84
  18  -4   1    9.62    1.96
 -14  18   1    6.75    3.08
  -4 -14   1    9.74    3.16
  -4 -14   1   10.99    1.70
 -18   7  -1   33.87    5.04
  11 -18  -1   21.28    2.79
  11 -18  -1   21.41    4.13
  18  -7   1   24.01    2.72
  -7 -11   1   26.87    2.37
  -7 -11   1   26.27    3.83
 -18  10  -1   14.42    2.66
   8 -18  -1   12.98    3.29
 -18  10  -1   18.07    3.89
 -10  -8   1   18.19    3.41
 -10  -8   1   19.85    2.03
  18 -10   1   20.47    3.16
  18 -10   1   18.66    2.44
   5 -18  -1   25.20    3.81
 -18  13  -1   37.16    5.20
   5 -18  -1   26.99    2.88
 -18  13  -1   25.10    3.36
  18 -13   1   29.35    2.85
  18 -13   1   28.73    2.73
 -13  -5   1   34.49    4.85
 -18  16  -1   16.35    2.75
   2 -18  -1   14.74    2.05
   2 -18  -1   13.98    3.26
  18 -16   1   11.46    1.94
  18 -16   1   12.40    1.98
  -1 -18  -1    5.86    1.53
 -18  19  -1    4.30    2.45
  -1 -18  -1    7.06    1.84
  18 -19   1    5.35    1.77
 -19   1   1    5.42    1.76
 -18  22  -1    6.25    2.28
  -4 -18  -1    7.47    1.50
  -4 -18  -1   10.30    1.78
  18 -22   1    5.13    1.66
 -22   4   1    4.25    1.40
 -18  25  -1    3.53    1.65
  -7 -18  -1    5.95    1.31
  -7 -18  -1    7.29    1.26
  18 -25   1    5.45    1.37
 -25   7   1    3.02    0.98
  25 -19  -1   -0.20    1.35
 -19  -6  -1   -0.22    0.83
   6 -25   1   -0.44    1.52
 -25  19   1    0.47    1.29
  22 -19  -1    4.81    1.59
 -19  -3  -1    2.31    0.95
  22 -19  -1    5.20    1.60
 -22  19   1    3.05    1.77
   3 -22   1    4.31    1.55
   3 -22   1    2.47    1.67
  19 -19  -1    3.74    1.76
  19 -19  -1    1.06    1.66
 -19  19   1    1.86    2.05
   0 -19   1    4.39    1.73
   0 -19   1    3.53    1.60
  16 -19  -1   25.22    2.86
  -3 -16   1   38.03    2.94
  19  -3   1   35.38    3.12
  -3 -16   1   36.67    2.87
 -16  19   1   25.03    3.22
 -19   6  -1   44.11    5.28
  13 -19  -1   28.58    2.91
  -6 -13   1   35.30    2.77
  -6 -13   1   29.72    4.87
  19  -6   1   30.57    3.05
  10 -19  -1    2.55    1.76
 -19   9  -1    4.68    2.09
  10 -19  -1    3.19    2.88
 -19   9  -1    4.93    3.26
  19  -9   1    3.24    1.66
  -9 -10   1    3.71    1.38
  -9 -10   1    5.17    3.00
   7 -19  -1   10.58    3.26
 -19  12  -1   13.95    2.50
 -19  12  -1   16.68    3.78
   7 -19  -1   13.53    2.19
  19 -12   1   13.87    2.43
 -12  -7   1   16.19    1.95
 -12  -7   1   17.80    3.61
  19 -12   1   13.14    1.98
 -19  15  -1   42.27    5.21
 -19  15  -1   34.01    3.53
   4 -19  -1   37.86    5.00
   4 -19  -1   34.21    3.15
  19 -15   1   37.13    3.05
  19 -15   1   39.14    3.14
   1 -19  -1    6.21    1.86
 -19  18  -1    4.21    2.39
  19 -18   1    4.55    1.81
  -2 -19  -1   11.57    1.86
 -19  21  -1    6.29    2.26
  -2 -19  -1    8.13    1.53
  19 -21   1    9.06    1.80
 -19  24  -1    5.27    1.85
  -5 -19  -1    7.10    1.44
  -5 -19  -1    6.43    1.35
  19 -24   1    4.62    1.51
  24 -20  -1    1.20    1.34
  24 -20  -1    2.54    1.41
   4 -24   1    0.17    1.50
 -24  20   1    0.70    1.34
  21 -20  -1    4.32    1.57
  21 -20  -1    5.41    1.69
   1 -21   1    6.44    1.74
 -21  20   1    4.00    1.88
   1 -21   1    6.84    1.63
  18 -20  -1    4.59    1.78
  -2 -18   1    8.77    1.78
 -18  20   1    4.22    2.08
  20  -2   1    8.10    1.83
  -2 -18   1    8.81    1.75
  15 -20  -1   24.68    2.69
  -5 -15   1   30.17    2.67
  -5 -15   1   28.27    2.67
  20  -5   1   24.61    2.89
 -20   8  -1    9.35    3.37
  12 -20  -1    1.76    1.64
  20  -8   1    2.14    1.69
  -8 -12   1    5.13    3.71
  -8 -12   1    0.57    1.39
 -20  11  -1   11.08    2.34
 -20  11  -1   18.48    3.90
   9 -20  -1   10.48    3.26
  20 -11   1   16.61    2.44
 -11  -9   1   17.24    3.62
 -11  -9   1   15.21    2.05
 -20  14  -1   23.98    3.01
   6 -20  -1   23.47    2.84
  20 -14   1   30.72    2.75
  20 -14   1   28.65    2.79
   3 -20  -1    9.65    1.94
 -20  17  -1    6.68    2.28
  20 -17   1    9.80    1.87
  20 -17   1    7.21    1.78
 -20  20  -1    3.33    2.10
   0 -20  -1    4.58    1.75
  20 -20   1    1.67    1.68
  -3 -20  -1    2.58    1.24
 -20  23  -1    1.66    1.80
  -3 -20  -1    4.11    1.52
  20 -23   1    1.24    1.54
  23 -21  -1    2.35    1.43
  23 -21  -1    1.06    1.34
   2 -23   1    1.38    1.52
   2 -23   1    2.73    1.35
 -23  21   1    1.59    1.43
  20 -21  -1    5.57    1.66
  -1 -20   1    6.78    1.62
 -20  21   1    3.57    1.83
  -1 -20   1    6.79    1.69
  17 -21  -1    4.67    1.73
  -4 -17   1    6.80    1.65
 -17  21   1    3.79    1.99
  -4 -17   1    8.18    1.76
  21  -4   1    8.10    1.86
  14 -21  -1    7.01    1.72
  -7 -14   1   11.62    1.82
  21  -7   1    9.97    1.94
 -21  10  -1   12.53    2.30
 -10 -11   1   16.97    2.11
  21 -10   1   20.43    2.57
 -21  13  -1   19.53    2.89
   8 -21  -1   18.49    2.65
 -13  -8   1   22.56    2.15
  21 -13   1   18.78    2.49
  21 -13   1   21.37    2.65
 -21  16  -1    3.77    2.08
   5 -21  -1    6.13    1.90
  21 -16   1    6.40    1.75
  21 -16   1    7.35    1.85
 -21  19  -1    1.50    2.01
   2 -21  -1    1.68    1.71
  21 -19   1    1.78    1.72
 -21  22  -1    3.56    1.82
  -1 -21  -1    3.75    1.59
  21 -22   1    5.54    1.63
 -21  25  -1    0.82    1.56
  -4 -21  -1    1.49    1.08
  -4 -21  -1    1.57    1.25
  21 -25   1    0.72    1.64
  22 -22  -1    3.86    1.56
   0 -22   1    2.40    1.38
 -22  22   1    1.74    1.42
   0 -22   1    2.60    1.52
  19 -22  -1    3.73    1.63
 -19  22   1    0.90    1.69
  -3 -19   1    4.23    1.58
  -3 -19   1    3.72    1.55
  22  -3   1    3.54    1.55
  16 -22  -1    3.20    1.62
  -6 -16   1    3.97    1.68
  22  -6   1    5.15    1.77
  -6 -16   1    4.49    1.52
  13 -22  -1    5.56    1.58
  22  -9   1    7.92    1.86
  10 -22  -1    4.40    1.51
 -22  12  -1    7.15    2.03
 -12 -10   1    8.08    1.46
  22 -12   1    7.85    1.84
   7 -22  -1   11.23    2.00
 -22  15  -1   10.01    2.16
 -15  -7   1    8.99    1.50
  22 -15   1   10.92    1.86
  22 -15   1    9.83    1.88
 -22  18  -1    2.82    1.85
   4 -22  -1    1.21    1.67
  22 -18   1    2.64    1.69
  22 -18   1    1.76    1.62
 -22  21  -1    4.48    1.76
   1 -22  -1    5.40    1.61
  22 -21   1    5.50    1.68
 -22  24  -1    0.04    1.56
  -2 -22  -1    1.01    1.35
  22 -24   1   -0.96    1.70
  21 -23  -1    0.73    1.54
 -21  23   1   -0.27    1.35
  -2 -21   1    0.01    1.36
  -2 -21   1    1.45    1.37
  18 -23  -1    5.50    1.65
  23  -5   1    8.71    1.68
  -5 -18   1    7.50    1.50
  -5 -18   1    8.75    1.69
  15 -23  -1    3.32    1.55
  23  -8   1    6.12    1.78
  -8 -15   1    7.82    1.69
  12 -23  -1    4.09    1.47
 -23  11  -1    6.91    1.82
  23 -11   1    8.68    1.84
 -11 -12   1   11.49    1.62
 -23  14  -1    8.01    1.94
   9 -23  -1    6.52    1.84
  23 -14   1    5.58    1.78
 -14  -9   1    7.03    1.33
   6 -23  -1    3.86    1.67
 -23  17  -1    4.01    1.78
  23 -17   1    3.81    1.66
  23 -17   1    4.32    1.64
   3 -23  -1    0.85    1.49
 -23  20  -1    0.89    1.57
  23 -20   1    0.13    1.59
   0 -23  -1    2.25    1.45
 -23  23  -1    2.90    1.56
  23 -23   1    1.44    1.71
  20 -24  -1    4.16    1.54
  -4 -20   1    2.53    1.39
  -4 -20   1    5.08    1.28
  17 -24  -1    6.13    1.54
  -7 -17   1    8.11    1.61
  24  -7   1    4.74    1.61
  14 -24  -1    1.93    1.39
  24 -10   1    3.52    1.68
 -10 -14   1    6.62    1.52
  11 -24  -1    3.67    1.33
 -24  13  -1    5.07    1.60
  24 -13   1    5.27    1.72
 -13 -11   1    5.93    1.33
 -24  16  -1    9.13    1.75
   8 -24  -1    8.73    1.74
  24 -16   1   10.15    1.76
  24 -16   1    7.66    1.73
 -24  19  -1    0.94    1.45
   5 -24  -1    0.57    1.43
  24 -19   1    3.96    1.53
  24 -19   1    1.27    1.37
   2 -24  -1    3.88    1.46
 -24  22  -1    2.33    1.48
  24 -22   1    4.23    1.70
  19 -25  -1    2.38    1.52
  -6 -19   1    4.24    1.42
  25  -6   1    3.65    1.36
  16 -25  -1    2.21    1.36
  25  -9   1    1.73    1.49
  -9 -16   1    2.03    1.39
  13 -25  -1    5.78    1.35
 -12 -13   1   10.87    1.46
  25 -12   1    8.02    1.68
 -25  15  -1    4.48    1.40
  25 -15   1    2.66    1.58
 -15 -10   1    3.20    1.11
   7 -25  -1    3.20    1.39
 -25  18  -1    2.62    1.31
  25 -18   1    4.82    1.43
  25 -18   1    5.46    1.46
   4 -25  -1    0.92    1.47
 -25  21  -1    0.64    1.35
  25 -21   1    1.74    1.68
  18 -26  -1    1.34    1.47
  26  -8   1    3.66    1.48
  -8 -18   1    1.20    1.33
  15 -26  -1    2.85    1.26
 -11 -15   1    6.63    1.29
  26 -11   1    4.00    1.51
 -26  14  -1    3.53    1.42
  26 -14   1    4.37    1.53
 -14 -12   1    5.88    1.12
 -26  17  -1    5.28    1.26
  26 -17   1    4.84    1.50
  -1   0   2  123.64    7.00
   1  -1   2  122.77    6.82
  -1   0   2  126.65    7.65
  -1   0   2  128.68    7.08
   0   1   2  134.11    7.13
   1  -1   2  129.43    7.02
   1  -1   2  123.89    7.68
   0   1   2  131.74    6.90
  -2   0  -2  145.89    7.17
  -2   2   2  135.01    7.45
   2   0   2  134.74    7.19
   0  -2   2  140.83    7.38
   0  -2   2  134.58    8.31
  -2   2   2  138.11    7.60
   0  -2   2  128.60    7.41
   2   0   2  131.83    7.49
  -1  -2  -2   88.28    5.12
   3  -1  -2   88.65    6.00
   1   2   2   92.06    5.48
  -3   1   2   90.38    5.50
  -3   1   2   94.85    5.47
   2  -3   2   98.76    6.53
   2  -3   2   99.48    5.28
  -3  -1  -2  189.27    9.42
   4  -3  -2  186.55   10.14
   1  -4   2  187.92   10.92
  -4   3   2  174.51    9.81
  -4   3   2  182.10    9.88
   1  -4   2  174.50    9.62
   3   1   2  175.47    9.79
   1  -4   2  186.85    9.52
  -1   3   2  145.90    7.91
  -1   3   2  142.67    8.09
  -2  -1   2  149.31    8.83
   3  -2   2  146.92    8.81
  -2  -1   2  141.45    8.04
   3  -2   2  148.29    7.96
  -2  -1   2  150.42    7.94
   5  -2  -2  123.82    7.60
  -2  -3  -2  121.38    6.52
  -3   5  -2  117.12    6.49
  -5   2   2  120.48    6.96
   2   3   2  123.09    6.91
  -5   2   2  118.94    6.89
   3  -5   2  130.28    8.24
   3  -5   2  116.79    6.61
   6  -4  -2  465.42   22.79
  -4  -2  -2  441.44   21.74
  -6   4   2  428.67   22.12
   2  -6   2  397.89   21.84
   2  -6   2  434.86   23.32
  -6   4   2  419.03   22.15
   4   2   2  413.18   22.08
  -3   4   2  142.69    7.81
   4  -1   2  141.46    7.79
  -1  -3   2  145.21    8.84
  -1  -3   2  143.46    7.70
  -3   4   2  136.86    7.89
   4  -1   2  142.65    8.39
  -1  -3   2  140.92    7.79
   4   0  -2  162.61    9.40
  -4   4  -2  156.14    8.32
   0  -4  -2  170.66    8.34
   0   4   2  148.76    8.59
   4  -4   2  150.03    9.58
  -4   0   2  151.46    8.45
  -4   0   2  149.54    8.60
   7  -3  -2  312.11   15.91
  -3  -4  -2  290.29   14.50
   4  -7   2  269.18   16.11
  -7   3   2  271.06   14.85
   3   4   2  263.30   14.78
  -7   3   2  278.31   14.88
   8  -5  -2  496.17   25.45
  -5  -3  -2  497.81   23.93
   3  -8   2  422.36   23.95
   3  -8   2  471.37   25.72
  -8   5   2  462.26   24.28
  -8   5   2  474.45   24.44
   5   3   2  467.84   24.26
  -5   0  -2  253.67   13.35
  -5   5   2  259.02   13.55
  -5   5   2  249.46   13.44
   5   0   2  257.43   13.44
   0  -5   2  253.70   13.32
   0  -5   2  252.56   14.59
  -5   3  -2   49.74    3.28
   2  -5  -2   54.21    3.34
   5  -3   2   47.27    4.50
  -3  -2   2   43.19    4.52
  -3  -2   2   44.82    3.46
  -3  -2   2   45.37    3.09
  -2   5   2   48.19    3.66
  -1  -5  -2  104.35    5.62
   6  -1  -2  101.17    7.09
  -5   6  -2   93.81    5.62
  -6   1   2   96.10    6.02
   1   5   2  103.82    6.02
  -6   1   2   96.08    5.85
   5  -6   2   99.52    7.36
  -4  -5  -2  360.26   19.19
   9  -4  -2  375.71   21.02
  -9   4   2  388.11   19.76
   5  -9   2  371.90   21.10
  -9   4   2  376.69   19.57
   4   5   2  367.96   19.48
  10  -6  -2  152.36   11.66
  -6  -4  -2  174.29    9.51
  -6  -4  -2  177.88    9.56
 -10   6   2  173.23    9.81
   4 -10   2  175.18   11.69
 -10   6   2  185.85   10.17
   7  -6  -2  245.99   15.93
  -6  -1  -2  312.55   15.15
  -7   6   2  285.38   15.24
  -7   6   2  286.29   15.35
   1  -7   2  289.81   15.03
   1  -7   2  308.58   16.73
   4  -6  -2  233.47   12.20
  -6   2  -2  205.92   12.10
  -4   6   2  255.26   12.29
  -4   6   2  235.97   12.35
  -2  -4   2  220.21   13.27
   6  -2   2  230.34   13.00
  -2  -4   2  226.04   12.17
   5   1  -2   51.90    5.20
   1  -6  -2   58.11    3.69
  -6   5  -2   54.94    3.75
   6  -5   2   55.46    5.38
  -5  -1   2   54.81    3.64
  -1   6   2   61.57    4.08
  -5  -1   2   54.66    4.01
  -2  -6  -2   86.67    5.10
   8  -2  -2   91.82    7.27
  -8   2   2   84.69    5.65
   6  -8   2   86.44    7.26
   2   6   2   83.00    5.48
  -8   2   2   86.17    5.59
  -5  -6  -2  165.56    9.25
  11  -5  -2  156.99   12.70
  -5  -6  -2  168.74    9.41
 -11   5   2  179.38    9.80
   6 -11   2  174.97   11.96
 -11   5   2  175.97   10.13
  -7  -5  -2  105.38    6.38
  12  -7  -2  105.69    8.73
 -12   7   2  103.47    7.11
 -12   7   2  100.01    6.68
   5 -12   2  103.29    9.60
   9  -7  -2   23.22    4.40
  -7  -2  -2   17.57    2.62
  -9   7   2   15.87    2.55
   2  -9   2   15.60    2.44
  -9   7   2   15.38    2.36
   6  -7  -2  353.07   16.56
  -7   1  -2  331.26   16.49
  -1  -6   2  307.60   16.39
   7  -1   2  297.70   17.19
  -6   7   2  304.96   16.63
  -6   7   2  302.32   16.50
  -1  -6   2  301.25   17.72
  -7   4  -2   57.19    4.23
   3  -7  -2   59.95    4.16
  -4  -3   2   63.11    5.54
  -4  -3   2   62.31    4.34
  -3   7   2   72.25    4.54
   7  -4   2   64.94    5.63
   7   0  -2   93.03    7.47
  -7   7  -2   94.44    6.02
   0  -7  -2   93.48    5.78
   0   7   2  107.26    6.21
  -7   0   2  105.08    5.91
   7  -7   2   98.52    7.63
  -7   0   2  105.82    6.25
 -10   3   2   42.74    4.04
   7 -10   2   48.86    6.37
   3   7   2   48.94    3.82
 -10   3   2   43.74    4.20
  -6  -7  -2   83.13    5.45
  13  -6  -2   88.60    9.87
  -6  -7  -2   86.42    5.54
   7 -13   2   90.84    9.76
 -13   6   2   94.28    6.23
 -13   6   2   86.04    6.66
  -8  -6  -2   33.72    3.64
   6 -14   2   32.37    7.76
 -14   8   2   33.88    4.73
 -14   8   2   33.57    4.05
   3 -11   2   70.17    7.73
   3 -11   2   57.90    4.51
 -11   8   2   68.62    5.03
 -11   8   2   72.94    5.46
   8  -8  -2   25.55    3.51
  -8   8   2   35.63    3.55
   0  -8   2   33.78    3.31
   0  -8   2   31.36    5.02
   8   0   2   38.60    4.09
  -8   8   2   32.36    3.55
  -8   3  -2  361.26   18.33
   5  -8  -2  346.51   18.23
   8  -3   2  353.96   19.44
  -3  -5   2  342.47   19.49
  -3  -5   2  354.91   18.26
  -5   8   2  335.87   18.34
   6   2  -2   44.20    5.34
   2  -8  -2   44.59    3.49
  -8   6  -2   50.31    3.86
   8  -6   2   43.83    5.64
  -2   8   2   43.89    3.87
  -6  -2   2   46.38    3.78
   9  -1  -2   88.33    7.72
  -1  -8  -2   89.81    5.25
  -8   9  -2   81.84    5.46
  -9   1   2   83.62    5.70
   8  -9   2   76.68    7.62
   1   8   2   83.26    5.57
  -9   1   2   84.87    5.46
  -4  -8  -2    5.65    1.60
   8 -12   2    6.22    2.50
 -12   4   2   11.27    2.41
 -12   4   2    7.14    2.52
  -7  -8  -2   43.13    3.81
 -15   7   2   36.18    4.57
   8 -15   2   35.81    9.11
 -15   7   2   37.13    5.16
  -9  -4  -2   44.68    4.04
   4 -13   2   35.60    7.55
 -13   9   2   35.67    4.65
 -13   9   2   35.24    4.14
  10  -9  -2   35.20    3.70
  -9  -1  -2   33.40    3.34
 -10   9   2   25.24    3.50
   1 -10   2   26.50    3.29
   1 -10   2   23.67    5.66
 -10   9   2   24.55    3.59
  -9   2  -2  209.84   10.72
   7  -9  -2  197.59   10.56
  -7   9   2  182.12   10.67
   9  -2   2  183.64   11.72
  -2  -7   2  184.75   10.48
  -2  -7   2  181.43   11.98
   4  -9  -2   92.07    5.46
   5   4  -2   80.91    6.99
  -9   5  -2   97.33    5.87
   9  -5   2   79.70    7.21
  -5  -4   2   82.25    5.49
  -4   9   2   80.49    5.63
   8   1  -2   39.67    5.74
  -9   8  -2   41.05    4.08
   1  -9  -2   48.17    3.52
  -1   9   2   41.47    3.88
  -8  -1   2   42.07    3.90
   9  -8   2   42.25    6.24
  11  -2  -2   43.30    9.73
  -2  -9  -2   62.58    4.19
 -11   2   2   57.31    4.65
 -11   2   2   57.98    4.76
   2   9   2   55.60    4.38
   9 -11   2   56.04    7.81
  -5  -9  -2   24.76    3.05
 -14   5   2   24.50    3.33
   9 -14   2   19.31    3.89
 -14   5   2   24.85    3.76
  -8  -9  -2   21.54    1.97
   8   9   2   18.38    2.09
   9 -17   2   18.31    2.97
 -17   8   2   19.92    4.04
   9 -17   2   19.71    2.30
   9 -17   2   16.91    2.62
 -17   8   2   21.40    2.64
 -17   8   2   18.75    2.47
  18 -10  -2   32.51    2.95
 -10  -8  -2   37.76    2.59
   8 -18   2   31.93    3.07
   8 -18   2   34.63    2.99
 -18  10   2   34.01    3.05
 -18  10   2   34.65    5.46
  10   8   2   34.80    2.61
 -18  10   2   34.71    2.92
   8 -18   2   32.78    3.69
 -10  -2  -2   40.01    4.10
  12 -10  -2   43.20    4.34
   2 -12   2   33.10    7.40
   2 -12   2   34.21    3.78
 -12  10   2   31.82    4.20
 -10   1  -2   51.84    4.49
   9 -10  -2   52.92    4.39
  -9  10   2   49.20    4.57
  10  -1   2   51.44    5.07
  -1  -9   2   49.61    4.24
  -1  -9   2   47.94    6.36
   6 -10  -2  148.14    8.43
   4   6  -2  140.75    9.69
 -10   4  -2  166.87    8.85
  10  -4   2  139.96   10.38
  -4  -6   2  143.43    8.44
  -6  10   2  132.55    8.51
   7   3  -2   71.96    7.47
 -10   7  -2   71.64    6.04
   3 -10  -2   84.33    5.53
  10  -7   2   92.82    8.12
  -3  10   2   96.61    5.87
  -7  -3   2   92.31    5.72
  10   0  -2   52.02    8.96
   0 -10  -2   76.69    4.79
 -10  10  -2   64.85    4.85
 -10   0   2   68.04    5.24
  10 -10   2   64.94    8.32
   0  10   2   73.79    5.08
  13  -3  -2   37.82    6.07
  -3 -10  -2   62.18    4.15
 -13   3   2   49.73    4.97
  10 -13   2   52.71    9.37
 -13   3   2   50.34    4.85
  -6 -10  -2   31.08    3.64
 -16   6   2   28.83    4.96
 -16   6   2   26.12    3.80
  -9 -10  -2   29.75    2.35
  19  -9  -2   30.20    2.73
  -9 -10  -2   32.00    2.37
 -19   9   2   30.00    4.96
 -19   9   2   25.75    2.84
  10 -19   2   23.91    2.88
  10 -19   2   28.72    3.67
  20 -11  -2   31.16    2.63
 -11  -9  -2   28.65    2.24
 -11  -9  -2   27.75    2.18
   9 -20   2   22.49    2.83
   9 -20   2   24.46    3.64
   9 -20   2   21.00    2.66
 -20  11   2   19.39    2.57
 -11  -6  -2   29.69    2.49
 -17  11   2   31.77    2.84
  11   6   2   33.28    2.45
 -17  11   2   30.54    2.92
   6 -17   2   29.08    2.80
   6 -17   2   24.42    2.86
   6 -17   2   29.94    3.11
 -17  11   2   34.06    5.34
 -11  -3  -2   46.37    5.15
  14 -11  -2   54.11    4.97
   3 -14   2   54.05    8.45
 -14  11   2   39.65    5.39
 -11   0  -2   71.22    5.64
  11 -11  -2   69.48    5.39
   0 -11   2   70.45    5.31
 -11  11   2   70.81    5.75
   0 -11   2   65.84    8.34
   8 -11  -2   41.18    3.91
 -11   3  -2   42.42    4.48
  -3  -8   2   31.30    6.06
  11  -3   2   42.92    6.34
  -3  -8   2   33.95    3.74
  -8  11   2   32.37    3.88
   6   5  -2   76.47    7.90
   5 -11  -2   76.95    5.29
 -11   6  -2   76.75    6.06
  -6  -5   2   80.51    5.37
  -5  11   2   78.77    5.59
  11  -6   2   77.73    8.77
   9   2  -2  138.13   11.64
 -11   9  -2  153.21    8.94
   2 -11  -2  158.49    8.65
  -9  -2   2  151.18    8.90
  -2  11   2  150.87    8.84
  11  -9   2  142.88   12.26
  -1 -11  -2   50.16    4.12
  11 -12   2   47.30    9.36
 -12   1   2   48.28    4.80
  15  -4  -2    9.09    3.93
  -4 -11  -2   13.51    2.41
 -15   4   2    9.98    3.09
  11 -15   2    6.10    3.25
 -15   4   2    4.85    2.82
  -7 -11  -2   37.46    2.53
  18  -7  -2   28.28    2.75
  -7 -11  -2   35.14    2.56
  11 -18   2   32.23    3.70
 -18   7   2   35.41    3.04
 -18   7   2   35.58    5.27
   7  11   2   33.71    2.55
  11 -18   2   31.60    3.14
  11 -18   2   32.10    2.93
 -10 -11  -2   14.58    1.81
 -10 -11  -2   18.55    1.90
  21 -10  -2   14.27    2.30
  11 -21   2   11.78    2.18
 -21  10   2   11.36    2.00
  11 -21   2   14.46    2.90
 -12 -10  -2    4.56    1.23
  22 -12  -2    3.21    1.55
 -12 -10  -2    4.81    1.23
 -22  12   2    3.41    1.60
  10 -22   2    2.94    2.46
  10 -22   2    2.32    1.88
 -12  -7  -2   38.44    2.60
  19 -12  -2   34.38    2.95
   7 -19   2   33.59    3.59
  12   7   2   37.44    2.51
   7 -19   2   31.03    3.02
   7 -19   2   30.94    3.09
 -19  12   2   34.11    2.94
 -19  12   2   32.91    5.94
 -19  12   2   33.12    3.11
 -12  -4  -2    6.33    3.31
 -16  12   2   14.25    2.52
   4 -16   2   14.03    2.27
  12   4   2   14.15    1.91
 -16  12   2   15.12    2.54
 -16  12   2   13.18    3.72
   4 -16   2   17.13    2.52
   4 -16   2   14.92    2.37
  13 -12  -2   52.44    4.88
 -12  -1  -2   48.88    5.15
   1 -13   2   38.90    4.62
   1 -13   2   40.09    8.17
 -13  12   2   37.12    5.24
  10 -12  -2   55.51    4.88
 -12   2  -2   61.81    5.47
  -2 -10   2   53.08    8.17
 -10  12   2   52.48    5.25
  -2 -10   2   59.13    4.85
   7 -12  -2   16.52    2.66
 -12   5  -2   18.27    3.40
  -7  12   2   28.12    3.68
  -5  -7   2   25.64    3.45
   8   4  -2   96.17    9.93
   4 -12  -2  104.73    6.44
 -12   8  -2  100.36    7.03
  -8  -4   2   97.00    6.57
  -4  12   2  101.44    6.63
  12  -8   2   99.29   10.68
   1 -12  -2   75.11    5.27
 -12  11  -2   74.61    5.38
  12 -11   2   67.21   10.48
 -11  -1   2   73.39    5.79
  -2 -12  -2   35.39    3.81
 -14   2   2   42.58    4.91
  12 -14   2   37.31    9.98
  -5 -12  -2    5.37    1.46
  -5 -12  -2    6.07    2.34
  -5 -12  -2    4.94    1.22
  12 -17   2    5.59    2.61
 -17   5   2    3.60    1.78
  12 -17   2    2.53    1.61
 -17   5   2    5.80    3.12
  12 -17   2    2.91    1.81
  -8 -12  -2   33.64    2.45
  20  -8  -2   27.54    2.68
  -8 -12  -2   35.35    2.43
  12 -20   2   24.78    3.53
  12 -20   2   25.22    2.88
 -20   8   2   24.04    2.67
  12 -20   2   27.30    3.35
 -11 -12  -2    5.32    1.28
  23 -11  -2    3.86    1.56
 -11 -12  -2    6.71    1.26
  12 -23   2    4.67    2.24
  12 -23   2    3.80    1.81
 -23  11   2    2.90    1.44
 -13 -11  -2    3.72    1.16
  24 -13  -2    2.17    1.46
 -11  24  -2    0.47    2.04
  11 -24   2    1.45    1.59
 -24  13   2    2.55    1.34
  11 -24   2    0.60    1.79
 -13  -8  -2    7.17    1.29
  21 -13  -2    6.46    1.69
 -13  -8  -2    5.10    1.50
   8 -21   2    3.17    2.61
   8 -21   2    4.48    1.76
 -21  13   2    4.49    1.76
   8 -21   2    4.60    1.90
 -13  -5  -2   45.63    3.10
   5 -18   2   45.43    3.49
   5 -18   2   49.72    3.70
   5 -18   2   44.69    3.50
 -18  13   2   45.60    3.55
 -18  13   2   48.75    3.48
  15 -13  -2   14.31    3.11
 -13  -2  -2    8.59    3.36
   2 -15   2   12.07    3.03
 -15  13   2    9.05    3.63
 -13   1  -2   35.72    5.26
  12 -13  -2   39.64    4.55
  -1 -12   2   34.40    8.89
 -12  13   2   44.09    5.31
  -1 -12   2   47.23    4.76
 -13   4  -2   71.42    6.65
   9 -13  -2   79.70    5.89
  -4  -9   2   81.18    5.97
  -9  13   2   89.93    6.27
   6 -13  -2   37.99    4.07
 -13   7  -2   36.34    4.97
  -7  -6   2   41.72    4.13
  -6  13   2   39.44    4.34
  10   3  -2   74.43   10.34
   3 -13  -2   88.96    5.73
 -13  10  -2   81.53    6.01
  13 -10   2   77.74   11.17
 -10  -3   2   74.62    5.97
   0 -13  -2   20.21    3.32
 -13   0   2   19.60    3.42
  13 -13   2   14.48    4.04
  -3 -13  -2   27.06    2.33
  -3 -13  -2   25.84    2.05
  -3 -13  -2   25.98    3.70
  13 -16   2   21.50    2.56
  13 -16   2   21.72    2.59
 -16   3   2   21.16    3.82
 -16   3   2   21.93    2.57
  13 -16   2   17.41    3.12
  -6 -13  -2    5.86    1.55
  19  -6  -2    2.38    1.60
  -6 -13  -2    5.26    1.33
  13 -19   2    3.16    1.88
 -19   6   2    4.86    1.74
  13 -19   2    6.22    2.70
  13 -19   2    4.84    1.62
  -9 -13  -2   19.20    1.98
  22  -9  -2   16.23    2.31
  -9 -13  -2   20.95    1.99
  13 -22   2   14.38    2.76
 -22   9   2   13.68    2.06
  13 -22   2   14.01    2.12
 -12 -13  -2    5.67    1.19
 -13  25  -2    4.11    1.74
 -12 -13  -2    5.92    1.31
  25 -12  -2    5.07    1.43
  13 -25   2    3.02    1.45
  26 -14  -2    2.39    1.49
 -14 -12  -2    4.13    1.16
 -12  26  -2   -0.59    1.58
 -26  14   2    2.78    1.22
  12 -26   2    2.72    1.39
 -14  -9  -2    2.86    1.12
  23 -14  -2    4.44    1.50
 -23  14   2    1.67    1.48
   9 -23   2    0.91    2.04
   9 -23   2    1.95    1.73
 -14  -6  -2   13.58    1.76
  20 -14  -2   14.86    2.38
   6 -20   2    8.93    1.89
 -20  14   2    9.44    2.00
   6 -20   2    7.42    1.99
   6 -20   2   10.90    2.71
 -14  -3  -2   33.72    2.77
   3 -17   2   39.69    3.19
 -17  14   2   35.86    3.34
  14   3   2   39.63    2.78
 -17  14   2   40.47    3.25
 -17  14   2   39.59    5.60
   3 -17   2   37.26    3.09
   3 -17   2   40.29    3.22
  14  -6   2   53.34    9.47
   5 -14  -2   78.83    5.71
 -14   9  -2   78.34    6.33
  -9  -5   2   71.58    5.91
  14  -9   2   84.69   11.25
 -14  12  -2   52.14    4.66
   2 -14  -2   47.84    4.57
 -12  -2   2   42.36    5.17
  14 -12   2   54.98   10.87
  -1 -14  -2    4.01    1.45
  -1 -14  -2    4.11    2.29
 -15   1   2    0.59    2.93
  14 -15   2    1.50    1.59
  14 -15   2   -0.76    2.25
 -15   1   2    1.24    1.67
  -4 -14  -2   22.97    3.77
  -4 -14  -2   22.69    2.08
  -4 -14  -2   23.36    2.33
 -18   4   2   20.10    2.43
  14 -18   2   15.93    2.89
  14 -18   2   18.54    2.49
  14 -18   2   17.94    2.55
  -7 -14  -2   11.93    1.89
  -7 -14  -2   11.84    1.78
  21  -7  -2    8.50    1.75
  14 -21   2    6.71    1.58
  14 -21   2    6.88    1.89
 -21   7   2    5.94    1.67
  14 -21   2    8.72    2.56
  24 -10  -2    7.87    1.57
 -10 -14  -2   10.43    1.53
 -14  24  -2    6.65    2.16
 -24  10   2    4.82    1.33
  14 -24   2    5.98    1.57
  25 -15  -2    2.38    1.36
 -15 -10  -2    1.96    1.02
  10 -25   2    1.44    1.43
 -25  15   2    0.81    1.18
 -15  -7  -2    3.44    1.13
  22 -15  -2    3.68    1.60
   7 -22   2    1.20    1.72
   7 -22   2   -0.15    2.16
   7 -22   2    2.40    1.60
 -22  15   2    2.38    1.61
 -15  -4  -2   23.45    2.15
  19 -15  -2   28.29    2.75
   4 -19   2   20.03    2.64
 -19  15   2   21.47    2.68
   4 -19   2   21.45    2.99
 -19  15   2   23.63    2.72
   4 -19   2   20.81    2.68
  16 -15  -2   10.40    2.09
 -15  -1  -2   14.20    3.52
   1 -16   2   17.22    2.25
 -16  15   2   12.70    2.20
 -16  15   2   11.74    2.28
   1 -16   2   16.01    3.50
   1 -16   2   12.98    2.00
  15   1   2   14.35    1.92
  15   1   2   15.05    2.57
 -16  15   2   13.16    4.20
   1 -16   2   11.48    1.80
 -15   2  -2    6.81    3.42
  13 -15  -2   10.66    3.03
  -2 -13   2   14.68    3.31
 -13  15   2    9.95    3.79
  15  -8   2   80.71   10.62
 -15  11  -2   54.02    5.29
   4 -15  -2   52.31    4.96
  11   4  -2   45.39   11.03
  15 -11   2   55.08   11.13
 -11  -4   2   47.38    5.32
   1 -15  -2   18.31    2.98
   1 -15  -2   19.22    2.10
 -15  14  -2   15.70    2.82
 -14  -1   2   15.07    2.37
  15 -14   2   15.84    2.41
  15 -14   2   13.37    2.50
 -14  -1   2   16.73    3.68
  -2 -15  -2    4.09    1.58
  -2 -15  -2    4.86    2.50
  15 -17   2    2.10    1.61
  15 -17   2    2.94    2.29
 -17   2   2    1.44    1.71
  -5 -15  -2    8.29    1.40
  -5 -15  -2   10.28    1.68
 -15  20  -2   10.46    2.83
  15 -20   2    5.38    2.41
  15 -20   2    4.82    1.58
  15 -20   2    5.98    2.00
 -20   5   2    4.65    1.64
  -8 -15  -2   17.92    1.88
  23  -8  -2   13.82    2.11
 -15  23  -2   16.13    2.74
  15 -23   2   12.46    2.01
  15 -23   2   12.61    2.03
 -23   8   2   10.76    1.69
 -15  26  -2    2.92    1.50
 -11 -15  -2    4.88    1.22
 -11 -15  -2    5.48    1.42
  26 -11  -2    3.00    1.42
 -26  11   2    2.83    1.14
 -16  -8  -2    1.43    0.99
  24 -16  -2    1.57    1.37
   8 -24   2    0.82    1.54
 -24  16   2    1.23    1.36
 -16  -5  -2    6.41    1.20
  21 -16  -2    7.15    1.73
   5 -21   2    3.34    1.80
   5 -21   2    4.76    1.71
   5 -21   2    2.27    2.32
 -21  16   2    4.02    1.77
 -16  -2  -2    9.91    1.48
  18 -16  -2    9.39    1.85
   2 -18   2   16.31    2.36
 -18  16   2    8.79    2.10
   2 -18   2   11.53    1.94
   2 -18   2   11.32    1.82
 -18  16   2   10.29    1.98
 -16   1  -2   11.62    3.41
  15 -16  -2   13.73    2.20
  16  -1   2    8.56    1.98
  16  -1   2    7.41    1.49
  -1 -15   2   10.56    1.89
 -15  16   2    8.66    2.23
  -1 -15   2    9.18    1.70
 -15  16   2    8.00    4.00
  -1 -15   2    9.11    3.36
 -16   4  -2   16.55    3.80
  12 -16  -2   17.61    3.45
 -12  16   2   11.55    3.82
  -4 -12   2   14.61    1.80
 -12  16   2   10.14    2.01
  16  -4   2   11.54    2.07
  -4 -12   2   12.45    3.41
  10   6  -2  123.58   12.78
   3 -16  -2   30.07    4.29
 -16  13  -2   26.26    3.48
   3 -16  -2   29.32    2.55
  16 -13   2   27.45    2.75
  16 -13   2   26.08    2.81
 -13  -3   2   30.61    4.36
 -13  -3   2   28.59    2.58
   0 -16  -2    8.59    1.68
 -16  16  -2    8.36    2.67
   0 -16  -2    7.94    2.73
  16 -16   2    6.25    2.24
 -16   0   2    4.54    1.70
 -16   0   2    1.81    3.16
  16 -16   2    4.16    1.67
  -3 -16  -2   25.93    2.23
 -16  19  -2   22.34    3.42
  -3 -16  -2   28.22    2.43
  16 -19   2   21.51    2.91
 -19   3   2   25.14    2.47
  16 -19   2   25.75    2.57
 -16  22  -2    9.91    2.47
  -6 -16  -2    7.34    1.36
  16 -22   2    5.24    1.51
 -22   6   2    4.92    1.45
  -9 -16  -2    8.37    1.22
 -16  25  -2    3.79    1.76
  -9 -16  -2    6.28    1.20
 -17  -6  -2    2.68    1.00
  23 -17  -2    4.33    1.46
   6 -23   2    3.69    1.50
   6 -23   2    1.26    1.58
 -23  17   2    1.25    1.44
  20 -17  -2    7.12    1.82
  20 -17  -2    5.69    1.69
 -17  -3  -2    4.85    1.17
 -20  17   2    3.84    1.80
   3 -20   2    5.23    1.81
   3 -20   2    4.35    2.64
   3 -20   2    6.32    1.73
 -17   0  -2   15.87    1.90
  17 -17  -2   16.98    2.34
   0 -17   2   17.55    2.10
 -17  17   2   12.70    2.15
   0 -17   2   14.28    2.30
  17   0   2   14.76    2.58
  17   0   2   15.32    1.87
 -17  17   2    9.18    2.18
   0 -17   2   15.98    2.40
  14 -17  -2   27.03    5.27
  14 -17  -2   29.79    3.23
 -17   3  -2   36.26    5.02
  17  -3   2   25.13    2.32
 -14  17   2   20.41    4.46
  17  -3   2   24.26    2.98
  -3 -14   2   31.05    4.33
  -3 -14   2   27.72    2.59
 -14  17   2   17.67    3.27
  -3 -14   2   30.60    2.48
  -3 -14   2   25.58    2.72
 -17   6  -2   15.38    3.81
  11 -17  -2    9.48    3.18
  -6 -11   2   14.10    1.96
 -11  17   2   10.25    2.06
  -6 -11   2   12.26    3.51
  17  -6   2   11.54    1.96
  -6 -11   2   13.67    2.16
 -17   9  -2   16.57    3.80
   8 -17  -2   15.01    3.38
  -9  -8   2   12.52    3.44
  -9  -8   2   11.71    1.67
  17  -9   2   12.27    1.82
  -9  -8   2   11.23    1.92
  17  -9   2   10.78    1.87
  -8  17   2   11.31    1.99
   5 -17  -2   34.02    4.68
   5 -17  -2   29.82    2.67
 -17  12  -2   41.09    4.96
 -17  12  -2   29.45    3.41
  -5  17   2   19.41    2.78
  17 -12   2   25.41    2.80
 -12  -5   2   28.16    2.50
 -12  -5   2   31.08    4.47
  17 -12   2   25.44    2.67
   2 -17  -2    7.42    1.72
   2 -17  -2   10.04    2.90
 -17  15  -2    8.84    2.57
  17 -15   2    7.63    1.76
 -15  -2   2    7.18    1.65
 -15  -2   2    6.30    3.33
 -17  18  -2   13.60    2.71
  -1 -17  -2   13.44    2.11
  17 -18   2    8.89    1.76
 -18   1   2   10.39    1.77
 -17  21  -2    9.53    2.48
  -4 -17  -2   14.01    2.01
  -4 -17  -2    9.42    1.42
  17 -21   2    7.54    1.63
 -21   4   2    7.87    1.55
  -7 -17  -2    3.74    1.26
  -7 -17  -2    2.33    1.12
 -17  24  -2    2.04    1.88
  17 -24   2    1.10    1.24
 -24   7   2    0.94    1.03
 -18  -7  -2    1.98    0.92
  25 -18  -2    2.30    1.39
   7 -25   2    0.97    1.52
 -25  18   2    0.62    1.20
  22 -18  -2    8.12    1.59
 -18  -4  -2    6.07    1.09
   4 -22   2    2.99    1.65
 -22  18   2    3.98    1.57
   4 -22   2    5.65    1.61
  19 -18  -2   13.82    2.16
 -18  -1  -2   11.19    1.62
   1 -19   2    9.52    1.88
 -19  18   2    6.27    1.89
   1 -19   2    9.15    1.80
 -19  18   2   10.80    1.94
  16 -18  -2   36.24    3.06
  -2 -16   2   33.68    2.93
  -2 -16   2   32.54    2.83
  18  -2   2   33.19    3.15
 -16  18   2   32.75    3.23
  18  -2   2   32.74    2.49
  13 -18  -2   20.96    3.56
  13 -18  -2   22.92    2.99
  -5 -13   2   19.91    4.00
  -5 -13   2   19.32    2.39
  -5 -13   2   22.42    2.72
  18  -5   2   18.04    2.74
  10 -18  -2    9.70    3.37
 -18   8  -2   15.89    3.75
  -8 -10   2   16.16    2.04
  18  -8   2   14.10    2.48
  18  -8   2   15.92    2.04
  -8 -10   2   13.61    2.17
  -8 -10   2   14.00    3.66
 -10  18   2   13.75    2.10
 -18  11  -2   18.56    3.06
   7 -18  -2   20.99    3.65
 -11  -7   2   20.56    4.01
  18 -11   2   17.94    2.53
  -7  18   2   16.44    2.60
  18 -11   2   16.70    2.47
 -11  -7   2   17.06    2.14
   4 -18  -2   43.82    3.40
   4 -18  -2   46.85    5.04
 -18  14  -2   45.40    3.90
 -18  14  -2   63.62    5.49
 -14  -4   2   47.08    3.33
  18 -14   2   50.25    3.53
  18 -14   2   49.71    3.56
 -14  -4   2   51.52    5.94
 -18  17  -2    6.77    2.44
   1 -18  -2    5.72    1.73
  18 -17   2    4.87    1.69
 -17  -1   2    6.13    1.56
  -2 -18  -2   16.14    2.06
 -18  20  -2   10.57    2.44
 -20   2   2    9.57    1.73
  18 -20   2   13.99    2.24
 -18  23  -2    6.93    2.00
  -5 -18  -2   10.17    1.52
  18 -23   2    6.06    1.46
 -23   5   2    4.92    1.14
 -19  -5  -2    2.76    0.90
  24 -19  -2    2.24    1.33
   5 -24   2    1.39    1.47
   5 -24   2    3.67    1.28
 -24  19   2    0.88    1.22
  21 -19  -2    6.89    1.55
 -19  -2  -2    5.22    1.06
  21 -19  -2    8.04    1.62
   2 -21   2    5.30    1.70
 -21  19   2    5.33    1.63
   2 -21   2    6.62    1.69
  18 -19  -2    8.49    1.81
  18 -19  -2    6.82    1.91
 -19   1  -2    7.51    1.29
 -18  19   2    7.40    1.87
  -1 -18   2    6.91    1.78
  19  -1   2    7.34    1.82
  -1 -18   2    7.37    1.70
  15 -19  -2   39.23    3.31
 -15  19   2   35.33    3.64
  -4 -15   2   41.97    3.16
  19  -4   2   42.87    3.36
 -19   7  -2   12.35    4.01
  12 -19  -2   10.07    2.19
  12 -19  -2    5.39    3.80
  -7 -12   2    9.36    1.73
  19  -7   2    6.31    1.83
  -7 -12   2    9.19    4.27
   9 -19  -2    4.31    1.89
 -19  10  -2   12.56    3.61
   9 -19  -2    3.93    3.07
  19 -10   2    4.93    1.69
 -10  -9   2    7.58    3.64
  -9  19   2    3.79    1.72
  19 -10   2    5.94    1.73
 -10  -9   2    6.82    1.52
 -10  -9   2    7.58    1.61
   6 -19  -2   26.80    2.76
 -19  13  -2   31.48    3.09
  -6  19   2   21.59    2.54
  19 -13   2   25.58    2.74
 -13  -6   2   27.33    2.44
  19 -13   2   26.49    2.67
   3 -19  -2   12.27    2.00
 -19  16  -2   11.89    2.53
 -16  -3   2   14.85    1.98
  19 -16   2   19.16    2.41
 -19  19  -2   14.86    2.48
   0 -19  -2   17.22    2.15
 -19   0   2   11.44    1.72
  19 -19   2   11.25    1.89
 -19  22  -2    4.60    1.92
  -3 -19  -2    5.55    1.52
  19 -22   2    3.08    1.46
 -22   3   2    2.77    1.10
  -6 -19  -2    2.07    1.24
  -6 -19  -2    1.70    1.19
 -19  25  -2    1.25    1.62
  19 -25   2    0.54    1.39
 -25   6   2    0.87    0.87
 -20  -3  -2    2.56    0.86
  23 -20  -2    4.13    1.33
   3 -23   2    1.42    1.42
   3 -23   2    2.67    1.35
 -23  20   2    1.54    1.22
  20 -20  -2    2.37    1.54
  20 -20  -2    2.02    1.54
 -20   0  -2    1.74    0.96
 -20  20   2    0.71    1.50
   0 -20   2    1.71    1.59
   0 -20   2    3.07    1.63
  17 -20  -2   15.16    2.34
  -3 -17   2   16.95    2.29
  -3 -17   2   17.09    2.33
 -17  20   2   17.60    2.56
  20  -3   2   18.11    2.57
  14 -20  -2   26.07    2.90
  -6 -14   2   24.87    2.58
  20  -6   2   23.93    2.82
  11 -20  -2    7.49    1.98
  20  -9   2    7.46    1.83
  -9 -11   2   10.34    1.68
   8 -20  -2    1.65    1.72
 -20  12  -2    1.35    2.24
  20 -12   2    2.92    1.57
  20 -12   2    3.93    1.67
  -8  20   2    4.21    1.55
 -20  15  -2   35.65    3.29
   5 -20  -2   32.81    2.97
  20 -15   2   34.38    2.95
  20 -15   2   37.23    3.02
 -15  -5   2   33.60    2.68
   2 -20  -2    3.01    1.67
 -20  18  -2    3.23    2.08
  20 -18   2    5.79    1.69
 -18  -2   2    4.02    1.32
 -20  21  -2    7.90    1.94
  -1 -20  -2   13.31    1.97
  20 -21   2    7.85    1.63
 -21   1   2    7.97    1.33
 -20  24  -2    2.38    1.66
  -4 -20  -2    2.69    1.33
 -24   4   2    1.71    0.85
  20 -24   2    1.87    1.43
  22 -21  -2    1.25    1.28
 -21  -1  -2    0.92    0.80
  22 -21  -2    0.56    1.27
   1 -22   2    0.62    1.37
 -22  21   2    0.41    1.16
   1 -22   2    1.09    1.40
  19 -21  -2    6.95    1.66
  19 -21  -2    5.26    1.52
  -2 -19   2    8.31    1.68
  -2 -19   2    7.09    1.60
  21  -2   2    6.91    1.62
  16 -21  -2    6.48    1.72
  21  -5   2    5.20    1.76
  -5 -16   2    6.42    1.66
  13 -21  -2   11.30    1.97
  -8 -13   2   11.44    1.76
  21  -8   2   11.38    1.96
  10 -21  -2   15.16    2.42
  21 -11   2   17.68    2.54
 -11 -10   2   20.18    2.24
  21 -11   2   15.40    2.39
   7 -21  -2   15.61    2.82
   7 -21  -2   10.32    1.76
 -21  14  -2   15.26    2.43
  21 -14   2    9.51    1.84
  21 -14   2    8.79    1.76
   4 -21  -2    5.81    1.73
 -21  17  -2    6.67    2.01
  21 -17   2    9.01    1.76
  21 -17   2    7.79    2.51
 -17  -4   2    7.56    1.45
 -21  20  -2    9.95    1.99
   1 -21  -2   13.63    1.88
 -20  -1   2   10.32    1.42
  21 -20   2   10.58    1.74
 -21  23  -2    3.38    1.65
  -2 -21  -2    5.88    1.42
  21 -23   2    5.41    1.59
  21 -22  -2    3.34    1.43
  21 -22  -2    1.49    1.22
  -1 -21   2    2.02    1.48
  -1 -21   2    3.36    1.34
  18 -22  -2    8.26    1.64
  22  -4   2    5.63    1.64
  -4 -18   2    6.76    1.63
  15 -22  -2    3.15    1.60
  22  -7   2    5.50    1.70
  -7 -15   2    6.01    1.60
  12 -22  -2   13.06    2.18
 -10 -12   2   15.60    2.10
  22 -10   2   13.01    1.98
   9 -22  -2    2.96    1.52
  22 -13   2    3.83    1.63
  22 -13   2    5.56    1.77
 -22  16  -2    8.66    1.93
   6 -22  -2    7.08    1.75
  22 -16   2    9.30    1.77
  22 -16   2    8.88    1.70
 -22  19  -2    2.75    1.67
   3 -22  -2    4.45    1.54
  22 -19   2    4.70    1.61
   0 -22  -2    3.30    1.37
 -22  22  -2    2.67    1.52
  22 -22   2    2.86    1.61
  20 -23  -2    3.58    1.46
  -3 -20   2    2.10    1.49
  -3 -20   2    3.83    1.20
  23  -3   2    2.03    1.32
  17 -23  -2    1.53    1.46
  23  -6   2    1.11    1.46
  -6 -17   2    2.30    1.49
  14 -23  -2    8.63    1.65
  23  -9   2   13.44    2.26
  -9 -14   2   15.42    1.99
  11 -23  -2   14.14    1.96
 -12 -11   2   17.71    1.98
  23 -12   2   17.60    2.39
 -23  15  -2    6.93    1.73
  23 -15   2    5.86    1.72
  23 -15   2    6.12    1.63
   5 -23  -2    2.69    1.42
 -23  18  -2    4.98    1.57
  23 -18   2    5.31    1.63
 -23  21  -2    1.69    1.44
   2 -23  -2    3.29    1.33
  23 -21   2    3.16    1.68
  19 -24  -2    1.61    1.46
  24  -5   2    2.28    1.34
  -5 -19   2    0.81    1.43
  16 -24  -2    4.50    1.44
  -8 -16   2    5.54    1.43
  24  -8   2    6.09    1.55
  13 -24  -2    6.93    1.42
  24 -11   2    8.68    1.69
 -11 -13   2   11.81    1.75
  10 -24  -2    0.75    1.18
  24 -14   2    1.36    1.50
  24 -14   2    2.11    2.21
 -24  17  -2    1.37    1.35
  24 -17   2    1.58    1.56
  24 -17   2    0.69    1.32
   4 -24  -2    0.98    1.23
 -24  20  -2    1.91    1.35
  24 -20   2    0.78    1.73
  18 -25  -2    4.30    1.58
  -7 -18   2    5.75    1.45
  25  -7   2    4.55    1.52
  15 -25  -2    4.30    1.34
 -10 -15   2    4.59    1.24
  25 -10   2    4.01    1.49
  25 -13   2    8.48    1.61
 -13 -12   2   10.03    1.44
  25 -16   2    4.26    1.40
  25 -16   2    2.61    1.39
 -25  19  -2   -1.00    1.22
   6 -25  -2   -0.04    1.59
  25 -19   2    0.55    1.55
  14 -26  -2    4.72    1.23
 -12 -14   2    7.10    1.12
  26 -12   2    3.57    1.53
  26 -15   2    0.64    1.43
   0   0   3  329.67   18.43
   0   0   3  340.41   17.61
   0   0   3  349.19   17.93
  -1  -1  -3  246.18   15.06
   1  -2   3  290.77   16.45
   1   1   3  291.57   15.17
   1  -2   3  314.71   15.50
   1  -2   3  285.61   15.18
   1   1   3  301.71   15.61
  -2   1   3  303.69   15.59
  -2   1   3  301.19   15.42
  -1  -1   3  150.64    9.69
  -1  -1   3  157.43    8.75
   2  -1   3  159.44    8.84
  -1   2   3  161.28    8.65
  -1   2   3  162.73    8.99
  -1  -1   3  154.82    8.69
   2  -1   3  144.79    9.41
  -2  -2  -3  171.61    9.39
   4  -2  -3  160.66   10.35
  -4   2   3  177.72    9.96
   2  -4   3  177.30   11.24
   2   2   3  185.60    9.99
  -4   2   3  175.76    9.90
   2  -4   3  188.17    9.65
   0  -3   3  330.81   17.62
   3   0   3  338.04   17.84
  -3   3   3  341.36   17.76
   0  -3   3  329.45   18.99
   0  -3   3  344.98   17.66
  -3   3   3  343.47   17.98
   0  -3  -3   72.05    5.04
   3  -3   3   89.75    6.67
  -3   0   3   85.75    5.41
   0   3   3   86.87    5.62
  -3   0   3   85.47    5.57
   3  -3   3   94.35    5.40
   6  -3  -3   84.38    6.64
  -6   3   3   88.52    5.84
  -6   3   3   93.95    5.95
   3  -6   3   90.87    7.56
   3   3   3   87.29    5.78
   1  -5   3   68.53    6.39
   1  -5   3   67.45    4.22
  -5   4   3   57.37    4.71
   4   1   3   60.56    4.42
  -5   4   3   58.69    4.57
   2  -4  -3  121.73    7.92
   4  -2   3  145.62    8.17
  -2  -2   3  143.20    8.22
  -2   4   3  146.15    8.09
  -2  -2   3  150.15    8.01
  -2   4   3  145.65    8.39
  -2  -2   3  143.00    9.49
   4  -2   3  140.39    9.01
  -4   5  -3   64.69    4.18
  -1  -4  -3   66.33    4.08
   5  -1  -3   68.75    5.80
   1   4   3   63.50    4.74
   4  -5   3   59.80    6.09
  -5   1   3   63.72    4.74
  -5   1   3   59.30    4.49
   8  -4  -3  109.72    8.85
   4   4   3  119.68    7.38
   4  -8   3  124.66    9.68
  -8   4   3  126.94    7.63
  -8   4   3  128.05    7.57
  -7   5   3   53.89    4.35
  -7   5   3   51.73    4.39
   2  -7   3   50.84    6.27
   5   2   3   49.80    3.98
  -5   1  -3  144.76    8.69
   5  -1   3  154.93    8.82
  -4   5   3  156.67    8.81
  -1  -4   3  158.12   10.39
  -1  -4   3  155.36    8.80
  -4   5   3  152.54    9.02
  -5   4  -3  160.95    9.10
   4   1  -3  166.54   10.40
   1  -5  -3  170.51    9.04
  -4  -1   3  166.19    9.45
  -1   5   3  163.12    9.45
  -4  -1   3  164.21    9.10
   5  -4   3  153.48   10.57
  -2  -5  -3   83.22    5.28
   7  -2  -3   73.70    7.16
  -7   2   3   97.08    6.05
   2   5   3   93.73    5.93
   5  -7   3   92.28    7.87
  -7   2   3   92.59    5.83
  -5  -5  -3   84.36    5.56
 -10   5   3   82.47    6.25
   5 -10   3   84.72    8.90
 -10   5   3   83.90    5.99
   5   5   3   86.77    5.82
  -6  -3  -3   50.66    3.92
  -9   6   3   47.93    4.31
  -9   6   3   49.60    4.54
   3  -9   3   48.20    6.93
  -6   0  -3  143.66    8.61
   0  -6   3  154.97    8.73
   0  -6   3  159.14   10.75
  -6   6   3  152.12    8.84
  -6   6   3  152.22    9.02
  -6   3  -3  135.18    7.76
   3  -6  -3  142.12    7.78
  -3  -3   3  136.59    9.44
   6  -3   3  121.61    8.82
  -3  -3   3  139.11    8.08
  -3   6   3  129.36    8.03
   6   0  -3  100.39    7.89
   0  -6  -3   97.36    5.75
  -6   6  -3  103.68    5.96
  -6   0   3   97.12    6.36
   6  -6   3   93.99    8.04
  -6   0   3   90.71    5.85
   0   6   3   89.94    6.26
  -3  -6  -3   74.51    4.71
   9  -3  -3   57.23    8.12
   6  -9   3   77.14    7.80
  -9   3   3   74.17    5.48
   3   6   3   80.62    5.39
  -9   3   3   73.24    5.42
  -6  -6  -3   40.89    3.65
 -12   6   3   32.91    4.35
 -12   6   3   29.46    4.72
   6 -12   3   31.98    7.29
  -7  -4  -3   66.00    4.70
 -11   7   3   60.26    5.59
 -11   7   3   57.13    5.05
   4 -11   3   56.28    8.04
  -7  -1  -3   69.46    5.02
  -8   7   3   76.32    5.43
   1  -8   3   79.21    7.74
   1  -8   3   78.63    5.64
  -8   7   3   74.47    5.59
  -7   2  -3  178.77    9.94
   5  -7  -3  187.32   10.05
  -2  -5   3  177.67   10.11
  -2  -5   3  170.82   11.68
  -5   7   3  167.40   10.16
   2  -7  -3  152.54    8.54
  -7   5  -3  154.27    8.71
   5   2  -3  160.77   10.70
  -5  -2   3  155.17    9.01
  -2   7   3  144.45    8.95
   7  -5   3  140.39   10.40
   8  -1  -3   60.19    8.42
  -1  -7  -3   69.10    4.60
   1   7   3   73.36    5.30
  -8   1   3   71.82    5.35
   7  -8   3   72.15    7.67
  -8   1   3   70.29    4.82
   7 -11   3   49.56    7.70
 -11   4   3   49.93    4.80
   4   7   3   51.39    4.43
 -11   4   3   50.92    4.90
  -7  -7  -3   34.08    4.04
 -14   7   3   36.98    4.69
 -14   7   3   31.27    5.23
 -13   8   3   10.04    2.77
 -13   8   3   10.23    3.38
  -8  -2  -3   63.00    4.69
 -10   8   3   61.67    5.10
 -10   8   3   63.99    5.40
   2 -10   3   60.11    7.91
   7  -8  -3  154.17    9.13
  -8   1  -3  150.12    8.92
  -1  -7   3  159.21    9.22
  -7   8   3  151.42    9.26
  -1  -7   3  161.09   11.29
   4   4  -3  168.60   10.32
  -8   4  -3  145.49    8.55
   4  -8  -3  146.25    8.44
  -4   8   3  130.25    8.66
   8  -4   3  136.60    9.86
  -4  -4   3  144.46    8.73
  -8   7  -3  107.56    6.83
   7   1  -3  110.21    9.84
   1  -8  -3  110.96    6.55
  -7  -1   3  107.51    7.09
  -1   8   3  108.21    7.05
   8  -7   3  104.27    9.68
  -2  -8  -3   66.63    4.85
   2   8   3   77.19    5.54
 -10   2   3   74.37    5.68
 -10   2   3   74.96    5.29
   8 -10   3   72.37    8.75
  -5  -8  -3   36.00    3.51
   8 -13   3   42.25    7.89
 -13   5   3   31.74    4.89
 -13   5   3   36.39    4.66
  -8  -8  -3   93.60    5.12
 -16   8   3   93.09    5.41
 -16   8   3   90.75    7.08
   8 -16   3   87.85    5.62
 -16   8   3   93.77    5.36
   8 -16   3   90.64    5.37
   8 -16   3   90.73    5.35
   8   8   3   90.19    5.10
 -16   8   3   77.65    7.62
  -9  -6  -3   56.82    5.60
   6 -15   3   64.11    4.10
   9   6   3   57.84    3.79
 -15   9   3   58.19    6.60
   9   6   3   61.10    3.80
   6 -15   3   61.99    4.25
   9   6   3   66.18    3.97
   6 -15   3   66.35    4.10
 -15   9   3   67.60    4.21
 -15   9   3   61.45    5.88
 -15   9   3   63.51    4.18
  -9  -3  -3   24.79    3.68
 -12   9   3   17.62    3.14
 -12   9   3   21.12    3.73
  -9   0  -3   42.15    4.11
   9  -9  -3   43.33    4.42
   0  -9   3   50.21    4.38
  -9   9   3   43.04    4.50
   0  -9   3   48.07    7.62
   6  -9  -3  126.18    8.30
  -9   3  -3  131.62    8.37
  -3  -6   3  154.38    8.69
  -3  -6   3  147.79   10.77
  -6   9   3  143.09    8.65
  -9   6  -3  105.24    6.74
   3  -9  -3  102.99    6.31
  -6  -3   3   99.62    6.84
  -3   9   3   91.63    6.64
   9  -6   3  102.70    9.69
   0  -9  -3   68.72    4.89
   9   0  -3   81.55    9.59
  -9   0   3   73.55    5.73
   9  -9   3   69.62    9.31
   0   9   3   72.81    5.60
  -3  -9  -3   37.14    3.66
 -12   3   3   43.27    4.78
 -12   3   3   42.02    4.29
   9 -12   3   46.07    8.68
   3   9   3   41.88    4.20
  -6  -9  -3   61.86    3.96
 -15   6   3   66.16    4.31
   9 -15   3   70.10    4.30
   6   9   3   74.24    4.02
 -15   6   3   69.97    4.36
 -15   6   3   63.95    6.07
   9 -15   3   67.44    4.57
 -15   6   3   53.30    6.37
   9 -15   3   70.92    4.31
  -9  -9  -3   18.64    1.85
   9 -18   3   16.39    2.13
 -18   9   3   15.33    2.35
   9   9   3   11.26    1.83
   9 -18   3   14.42    2.16
   9 -18   3   22.07    3.53
 -18   9   3   13.65    2.21
  17 -10  -3   70.58    6.28
 -10  -7  -3   63.41    3.64
 -17  10   3   58.74    3.92
 -17  10   3   61.22    3.92
   7 -17   3   55.53    4.26
  10   7   3   54.58    3.58
   7 -17   3   56.07    4.00
   7 -17   3   50.71    3.88
 -17  10   3   52.20    6.24
 -10  -4  -3   10.13    3.01
  14 -10  -3   15.50    3.48
   4 -14   3   13.38    2.03
 -14  10   3    9.67    2.22
   4 -14   3   11.79    1.80
  10   4   3   10.59    1.55
   4 -14   3   12.61    2.02
 -14  10   3    9.28    3.69
  10   4   3   12.41    2.14
 -14  10   3    6.71    2.94
 -10  -1  -3   30.15    4.11
  11 -10  -3   33.11    4.45
   1 -11   3   39.98    8.02
 -11  10   3   37.36    4.83
   8 -10  -3   50.00    4.65
 -10   2  -3   57.43    4.73
  -8  10   3   52.09    4.89
  -2  -8   3   51.04    7.79
  -2  -8   3   53.33    5.01
   5 -10  -3   93.64    6.57
 -10   5  -3  100.24    7.02
  -5  10   3   99.32    6.97
  -5  -5   3  110.17    7.08
  10  -5   3  116.43    9.97
   2 -10  -3   83.04    5.66
 -10   8  -3   76.12    6.24
  -8  -2   3   91.67    6.29
  -2  10   3   82.88    6.12
  10  -8   3   85.99   10.15
  -1 -10  -3   65.23    4.98
   1  10   3   70.30    5.57
 -11   1   3   70.97    5.83
  10 -11   3   70.21    9.94
  -4 -10  -3    7.27    2.45
  10 -14   3   11.04    1.99
 -14   4   3    9.55    3.17
  10 -14   3   12.11    2.93
  10 -14   3    9.76    2.62
   4  10   3   11.84    1.50
 -14   4   3    8.69    1.90
  -7 -10  -3   37.13    2.54
 -17   7   3   33.12    4.51
  10 -17   3   38.36    3.82
   7  10   3   39.32    2.68
  10 -17   3   35.72    3.07
 -17   7   3   34.33    3.03
 -17   7   3   37.04    3.02
 -17   7   3   31.40    5.39
  10 -17   3   34.16    3.17
 -10 -10  -3   13.26    1.72
  20 -10  -3   14.09    2.21
 -10 -10  -3   13.68    1.70
 -20  10   3   11.87    2.02
  10 -20   3   16.25    2.94
  10 -20   3   10.21    2.03
  10 -20   3   12.20    2.02
  10  10   3   10.49    1.71
 -11  -8  -3   25.50    2.14
 -19  11   3   27.29    2.62
   8 -19   3   20.58    2.76
   8 -19   3   22.89    2.67
  11   8   3   25.99    2.14
   8 -19   3   28.18    3.40
 -19  11   3   21.42    2.53
  16 -11  -3   24.64    4.01
 -11  -5  -3   15.03    3.97
   5 -16   3   20.57    2.70
  11   5   3   21.47    2.21
 -16  11   3   17.61    4.25
  11   5   3   23.95    2.49
  11   5   3   23.61    2.24
 -16  11   3   21.62    2.75
   5 -16   3   22.49    2.60
   5 -16   3   24.33    2.69
 -16  11   3   18.52    2.57
 -11  -2  -3   24.85    4.50
  13 -11  -3   25.38    3.67
   2 -13   3   18.08    4.22
 -13  11   3   28.98    4.92
 -11   1  -3   37.56    4.61
  10 -11  -3   38.08    4.52
 -10  11   3   42.85    4.99
  -1 -10   3   38.32    8.30
  -1 -10   3   43.30    4.78
   4 -11  -3   83.19    5.91
 -11   7  -3   90.21    6.74
  -4  11   3   79.19    6.36
  11  -7   3   93.42   10.89
  -7  -4   3   87.34    6.41
   1 -11  -3   62.53    4.81
  -1  11   3   63.77    5.41
 -10  -1   3   62.84    5.58
  11 -10   3   60.80   10.28
  -2 -11  -3   12.57    2.40
 -13   2   3   12.79    3.29
   2  11   3   13.88    2.92
  11 -13   3    9.78    3.65
  -5 -11  -3   21.09    1.95
  11 -16   3   19.23    2.51
  11 -16   3   20.84    2.66
  11 -16   3   22.38    3.24
 -16   5   3   24.47    2.49
   5  11   3   21.93    2.09
 -16   5   3   18.82    3.87
  11 -16   3   22.02    2.54
  -8 -11  -3    6.48    1.25
  19  -8  -3    5.05    1.64
  -8 -11  -3    6.72    1.38
   8  11   3    2.81    1.39
  11 -19   3    3.51    1.82
  11 -19   3    4.35    1.85
  11 -19   3    5.14    2.78
 -19   8   3    3.81    1.64
 -11 -11  -3    6.83    1.27
 -11 -11  -3    7.07    1.23
  22 -11  -3    6.70    1.46
 -22  11   3    4.59    1.42
  11 -22   3    7.60    2.45
  11 -22   3    3.83    1.64
  11 -22   3    4.09    1.59
  21 -12  -3    7.71    1.58
 -12  -9  -3    8.09    1.27
 -12  -9  -3    7.39    1.24
   9 -21   3    5.55    1.84
   9 -21   3    7.79    2.62
   9 -21   3    4.43    1.74
 -21  12   3    4.94    1.57
 -12  -6  -3   21.51    2.11
 -18  12   3   21.16    2.56
 -18  12   3   20.04    2.46
  12   6   3   22.52    2.06
   6 -18   3   19.47    2.61
   6 -18   3   20.81    3.08
   6 -18   3   18.82    2.58
  15 -12  -3   28.26    4.13
 -12  -3  -3   24.83    4.38
   3 -15   3   30.56    2.85
 -15  12   3   31.25    3.13
  12   3   3   33.50    2.52
   3 -15   3   32.41    2.95
  12   3   3   33.54    2.56
   3 -15   3   30.03    2.94
  12   3   3   34.91    2.88
 -15  12   3   35.05    3.49
 -15  12   3   27.86    4.81
  12 -12  -3   58.91    5.37
 -12   0  -3   46.02    5.58
   0 -12   3   44.58    9.63
   0 -12   3   46.72    6.68
 -12  12   3   51.27    5.88
  12  -6   3   92.70   10.36
 -12   9  -3  110.42    7.94
   3 -12  -3  114.12    7.22
  12  -9   3  112.44   12.73
  -3  12   3  112.08    7.67
  -9  -3   3  115.21    7.87
   0 -12  -3   46.14    4.46
   0  12   3   52.37    4.84
 -12   0   3   54.92    5.55
  12 -12   3   51.16   10.13
  -3 -12  -3   22.01    3.52
   3  12   3   24.06    2.05
  12 -15   3   19.25    2.49
  12 -15   3   20.90    2.51
 -15   3   3   21.48    3.96
 -15   3   3   23.73    2.51
  12 -15   3   20.50    2.53
  12 -15   3   20.24    3.25
  -6 -12  -3   10.87    1.58
  12 -18   3    5.80    1.70
 -18   6   3    7.55    1.79
  12 -18   3    9.13    2.71
  12 -18   3    7.79    1.88
   6  12   3    8.55    1.51
  12 -18   3    6.10    1.88
  -9 -12  -3    8.77    1.43
  -9 -12  -3    7.70    1.29
  21  -9  -3    5.23    1.51
  12 -21   3    6.66    1.80
  12 -21   3   10.02    2.59
  12 -21   3    6.65    1.73
 -21   9   3    5.24    1.52
 -12 -12  -3    7.82    1.09
 -12 -12  -3    8.29    1.16
 -12  24  -3    6.80    1.93
  24 -12  -3    5.46    1.34
 -24  12   3    4.82    1.22
  12 -24   3    4.15    1.47
  12 -24   3    6.69    1.86
 -13 -10  -3    4.07    1.05
  23 -13  -3    3.76    1.33
 -13 -10  -3    3.16    1.09
  10 -23   3    2.01    1.45
  10 -23   3    4.57    2.07
  10 -23   3    3.14    1.45
 -23  13   3    3.20    1.26
 -13  -7  -3   12.62    1.69
  20 -13  -3   10.45    1.78
   7 -20   3   10.85    1.94
   7 -20   3   16.65    2.96
   7 -20   3   11.02    1.98
 -20  13   3   10.74    1.75
  13   7   3   15.21    1.69
 -20  13   3    9.27    1.81
 -13  -4  -3   18.21    2.07
 -17  13   3   13.95    2.49
  13   4   3   16.74    2.44
 -17  13   3   12.96    2.33
  13   4   3   16.27    1.94
   4 -17   3   15.11    2.45
   4 -17   3   13.62    2.00
  13   4   3   14.97    2.02
   4 -17   3   14.33    2.56
  14 -13  -3   46.19    5.31
 -13  -1  -3   32.40    5.73
 -14  13   3   42.39    6.09
  13   1   3   46.86    3.10
 -14  13   3   44.08    3.65
  13   1   3   47.56    3.12
   1 -14   3   47.23    3.50
  13   1   3   49.69    3.52
 -14  13   3   46.10    3.33
   1 -14   3   45.14    3.32
   1 -14   3   46.79    3.40
   8 -13  -3   45.81    4.90
 -13   5  -3   52.75    6.11
  -8  13   3   49.03    5.55
  -5  -8   3   56.28    5.52
   2 -13  -3  105.18    7.02
  11   2  -3  117.74   14.54
 -11  -2   3   98.67    7.66
  -2  13   3   99.18    7.25
  -1 -13  -3    8.16    2.42
  -1 -13  -3    7.58    1.42
 -14   1   3    5.89    3.26
  13 -14   3    5.64    1.71
  13 -14   3    6.08    1.72
  13 -14   3    6.46    2.45
   1  13   3    6.37    1.34
  13 -14   3    5.78    1.81
 -14   1   3    9.02    1.80
   1  13   3    8.62    1.60
  -4 -13  -3   51.68    3.10
   4  13   3   46.64    3.01
  13 -17   3   44.50    3.32
  13 -17   3   44.19    3.45
  13 -17   3   45.17    3.35
  13 -17   3   43.31    3.97
 -17   4   3   49.00    3.43
  -7 -13  -3    4.62    1.41
  -7 -13  -3    5.09    1.23
  13 -20   3    3.16    1.73
 -20   7   3    4.14    1.52
  13 -20   3    6.48    2.57
  13 -20   3    2.56    1.74
  23 -10  -3    4.08    1.38
 -13  23  -3    8.34    2.19
 -10 -13  -3    4.99    1.17
 -10 -13  -3    5.17    1.15
  13 -23   3    5.22    2.07
 -23  10   3    2.20    1.18
  13 -23   3    3.53    1.53
  22 -14  -3    4.99    1.46
 -14  -8  -3    4.68    1.11
 -14  -8  -3    4.89    1.06
   8 -22   3    3.12    1.55
   8 -22   3    4.26    1.67
   8 -22   3    4.50    2.24
 -22  14   3    2.91    1.40
 -14  -5  -3   26.00    2.25
 -19  14   3   30.09    2.71
   5 -19   3   28.42    3.09
  14   5   3   29.39    2.16
 -19  14   3   23.42    2.53
   5 -19   3   24.74    2.73
   5 -19   3   23.92    2.71
  16 -14  -3   11.17    2.89
  16 -14  -3   15.70    3.73
 -14  -2  -3   11.70    3.86
  14   2   3   15.93    2.48
 -16  14   3   13.19    4.30
   2 -16   3   15.26    2.21
   2 -16   3   17.58    2.45
  14   2   3   12.63    1.97
 -16  14   3   17.95    2.76
  14   2   3   13.05    1.91
   2 -16   3   13.36    1.96
 -14   1  -3   30.90    4.86
  13 -14  -3   34.02    4.86
  -1 -13   3   35.82    2.94
  -1 -13   3   35.70    2.91
 -13  14   3   35.31    3.50
  14  -1   3   35.38    2.65
 -13  14   3   31.81    5.49
  -1 -13   3   35.06    3.08
 -13  14   3   33.45    3.06
  14  -1   3   37.09    3.16
  14  -1   3   34.00    2.72
  -1 -13   3   42.44    5.61
 -14   4  -3   33.39    6.27
  10 -14  -3   34.04    4.88
 -10  14   3   42.78    4.01
  -4 -10   3   46.29    3.51
 -10  14   3   47.37    5.80
  14  -4   3   41.17    3.70
  -4 -10   3   49.95    5.65
 -14  10  -3   33.55    4.88
   4 -14  -3   28.35    4.08
  -4  14   3   24.82    3.25
 -10  -4   3   28.58    2.59
  -4  14   3   24.67    4.23
  14 -10   3   25.93    2.85
 -10  -4   3   33.62    4.45
   1 -14  -3   47.58    4.91
   1 -14  -3   46.24    3.38
  14 -13   3   53.03    4.19
  14 -13   3   53.00    3.73
  14 -13   3   59.19    3.76
 -13  -1   3   60.47    3.68
  14 -13   3   59.74    3.67
 -13  -1   3   57.34    6.07
  -1  14   3   57.46    3.64
  -2 -14  -3   12.32    1.91
  -2 -14  -3   14.86    4.15
 -16   2   3    9.56    4.73
  14 -16   3   11.83    1.94
  14 -16   3   10.94    2.61
  14 -16   3   10.22    1.79
  14 -16   3   11.79    1.91
 -16   2   3   13.50    2.14
  -5 -14  -3   13.59    1.87
  -5 -14  -3   13.05    1.66
  14 -19   3   14.01    2.65
  14 -19   3   10.54    1.74
  14 -19   3   11.67    1.95
 -19   5   3   12.12    1.92
  -8 -14  -3    4.55    1.31
 -14  22  -3    7.56    2.33
  -8 -14  -3    4.22    1.18
  14 -22   3    4.87    1.64
 -22   8   3    3.60    1.27
  14 -22   3    6.87    2.26
  24 -15  -3    3.68    1.31
 -15  -9  -3    3.52    1.05
 -24  15   3    2.61    1.15
   9 -24   3    3.10    1.27
   9 -24   3    2.64    1.41
   9 -24   3    1.82    1.63
 -15  -6  -3    5.36    1.12
  21 -15  -3    6.16    1.54
 -15  -6  -3    4.60    1.03
   6 -21   3    2.35    1.63
   6 -21   3    7.50    2.34
 -21  15   3    2.65    1.46
   6 -21   3    4.44    1.69
 -15  -3  -3    9.48    1.53
   3 -18   3   10.12    1.91
  15   3   3   13.90    2.39
 -18  15   3    7.53    1.84
  15   3   3   14.20    1.72
   3 -18   3   10.59    2.22
 -18  15   3   14.57    2.48
  15   3   3   13.73    1.75
   3 -18   3    9.70    1.89
  15 -15  -3   17.98    3.53
  15 -15  -3   15.58    2.71
  15   0   3   23.29    2.20
   0 -15   3   21.72    2.49
 -15  15   3   25.06    3.10
 -15  15   3   21.38    4.78
   0 -15   3   24.99    2.69
  15   0   3   21.77    2.41
  15   0   3   22.19    2.76
   0 -15   3   22.09    2.55
 -15   3  -3   28.89    5.10
  12 -15  -3   39.46    4.91
  15  -3   3   29.55    3.54
  -3 -12   3   45.38    5.85
  15  -3   3   40.11    2.91
  -3 -12   3   44.98    3.08
 -12  15   3   37.31    3.83
  15  -3   3   41.66    3.19
 -12  15   3   42.51    5.97
  -3 -12   3   44.15    3.19
 -12  15   3   40.59    3.35
  15  -3   3   39.74    3.35
   9 -15  -3   38.66    5.19
 -15   6  -3   41.44    6.61
  -6  -9   3   50.47    3.29
  15  -6   3   41.42    3.14
  -9  15   3   46.15    5.64
  -9  15   3   43.03    3.78
  15  -6   3   45.31    3.55
  15  -6   3   37.46    3.75
  -9  15   3   49.07    3.66
  -6  -9   3   47.75    3.23
  15  -6   3   51.11    3.41
  -6  -9   3   49.60    5.82
 -15   9  -3   14.19    3.70
   6 -15  -3   12.27    3.00
  -9  -6   3   13.68    3.64
  15  -9   3   12.45    1.91
  15  -9   3   15.16    2.38
  15  -9   3   12.29    1.84
  15  -9   3   10.86    1.75
  -9  -6   3   13.50    2.13
  -6  15   3   13.34    3.35
  -6  15   3   16.95    2.21
 -15  12  -3   83.75    6.42
   3 -15  -3   73.99    4.48
   3 -15  -3   81.90    6.11
 -12  -3   3   75.05    6.94
  15 -12   3   74.30    4.62
 -12  -3   3   84.57    4.67
  15 -12   3   77.66    5.05
  15 -12   3   76.86    4.67
  15 -12   3   69.02    4.63
  -3  15   3   72.13    4.71
   0 -15  -3    3.65    2.52
   0 -15  -3    5.96    1.48
  15 -15   3    5.57    1.64
 -15   0   3    6.10    1.57
  15 -15   3    5.64    2.34
  15 -15   3    7.48    1.79
  15 -15   3    3.05    1.69
 -15   0   3    5.22    3.53
  -3 -15  -3   14.11    1.92
  15 -18   3   10.19    1.73
 -18   3   3    9.86    1.73
  15 -18   3   13.25    2.53
  15 -18   3   11.59    1.93
  -6 -15  -3   11.57    1.57
  -6 -15  -3   12.37    1.75
  15 -21   3    9.38    1.61
  15 -21   3   13.57    2.38
 -21   6   3    9.12    1.56
  15 -21   3    9.42    1.79
  -9 -15  -3    5.33    1.16
  -9 -15  -3    3.76    1.00
 -15  24  -3    3.35    1.85
 -24   9   3    3.17    1.04
  15 -24   3    3.50    1.35
  23 -16  -3    4.79    1.31
 -16  -7  -3    4.25    1.02
   7 -23   3    2.34    1.73
 -23  16   3    3.40    1.19
   7 -23   3    3.53    1.43
   7 -23   3    3.08    1.45
  20 -16  -3    9.21    1.71
 -16  -4  -3    7.88    1.24
   4 -20   3    9.76    2.27
 -20  16   3    6.92    1.66
   4 -20   3    7.13    1.74
 -20  16   3    5.44    1.59
   4 -20   3    6.27    1.72
   1 -17   3   19.61    2.46
 -17  16   3   20.50    2.79
  16   1   3   17.18    2.54
   1 -17   3   18.41    2.50
  16   1   3   17.58    2.02
   1 -17   3   16.67    2.35
 -16   2  -3   15.87    4.18
  14 -16  -3   17.81    3.86
  14 -16  -3   12.09    2.33
 -14  16   3   15.55    2.48
  -2 -14   3   17.96    2.46
 -14  16   3   19.72    5.48
 -14  16   3   19.61    3.09
  16  -2   3   17.84    2.69
  16  -2   3   19.57    2.12
  -2 -14   3   21.72    4.46
  -2 -14   3   18.52    2.38
  11 -16  -3   28.47    4.21
 -16   5  -3   24.43    4.85
  16  -5   3   39.17    2.83
  16  -5   3   40.23    3.28
  -5 -11   3   38.01    2.91
 -11  16   3   31.12    3.72
 -11  16   3   39.30    3.42
 -11  16   3   34.41    5.55
  16  -5   3   42.41    3.09
  -5 -11   3   37.13    2.97
  -5 -11   3   38.84    5.58
   8 -16  -3   16.86    3.39
 -16   8  -3   20.52    4.21
  -8  -8   3   23.82    2.46
  -8  16   3   24.23    3.04
  -8  16   3   21.21    3.96
  -8  16   3   22.54    2.72
  16  -8   3   26.14    2.74
  -8  -8   3   23.37    4.16
  16  -8   3   19.18    2.27
  16  -8   3   22.52    2.72
   5 -16  -3   14.49    3.16
 -11  -5   3   14.33    3.83
  16 -11   3    9.27    1.74
  16 -11   3    9.42    1.83
 -11  -5   3   12.08    2.13
  16 -11   3   10.15    1.77
  -5  16   3    8.96    1.99
   2 -16  -3   23.86    4.02
 -16  14  -3   25.56    3.42
   2 -16  -3   25.90    2.43
  16 -14   3   22.65    2.69
 -14  -2   3   28.54    2.52
 -14  -2   3   29.57    4.94
  16 -14   3   29.79    2.62
  16 -14   3   29.77    2.68
  -2  16   3   25.24    2.70
 -16  17  -3    8.34    2.52
  -1 -16  -3    8.64    1.61
  16 -17   3    7.09    2.21
 -17   1   3    7.84    1.59
  16 -17   3    6.05    1.76
  16 -17   3    7.09    1.67
 -16  20  -3    7.98    2.38
  -4 -16  -3    6.83    1.47
  16 -20   3    8.14    2.15
  16 -20   3    5.97    1.55
 -20   4   3    5.21    1.35
  16 -20   3    6.41    1.67
  -7 -16  -3    3.12    1.02
 -16  23  -3    3.48    1.91
  -7 -16  -3    2.82    1.23
 -23   7   3    1.17    0.98
  16 -23   3    0.86    1.38
  22 -17  -3    4.59    1.36
 -17  -5  -3    3.20    0.97
 -22  17   3    2.66    1.24
   5 -22   3    3.81    1.89
   5 -22   3    3.17    1.53
   5 -22   3    1.83    1.48
  19 -17  -3    0.99    1.98
 -17  -2  -3    3.40    1.19
 -19  17   3    3.29    1.70
   2 -19   3    6.14    1.96
   2 -19   3    4.21    1.68
   2 -19   3    2.63    1.62
  17   2   3    3.43    1.59
  16 -17  -3   16.23    2.51
 -16  17   3   22.40    3.02
  -1 -16   3   19.42    2.45
  17  -1   3   22.03    2.68
  -1 -16   3   18.25    2.29
  -1 -16   3   19.75    2.50
  17  -1   3   19.17    2.08
  17  -4   3   12.67    1.69
 -13  17   3   12.54    2.49
 -13  17   3   11.34    2.06
  17  -4   3   12.36    2.01
  -4 -13   3   12.28    2.10
  -4 -13   3   10.72    1.77
  10 -17  -3   10.48    3.09
 -17   7  -3   12.58    3.77
  17  -7   3   11.11    1.94
  17  -7   3   11.97    1.91
 -10  17   3    6.66    2.50
  17  -7   3   11.00    1.66
  -7 -10   3   15.63    2.22
 -10  17   3   13.31    4.24
 -10  17   3   14.01    2.17
  -7 -10   3   13.26    1.91
  -7 -10   3   14.53    3.88
 -17  10  -3   31.40    4.86
   7 -17  -3   14.42    3.31
  17 -10   3   21.13    2.59
  17 -10   3   19.83    2.58
  17 -10   3   15.02    2.21
 -10  -7   3   21.65    2.42
 -10  -7   3   22.13    4.21
  -7  17   3   20.86    2.65
   4 -17  -3   22.14    2.33
 -17  13  -3   32.87    4.70
  -4  17   3   18.04    2.49
 -13  -4   3   23.93    2.37
  17 -13   3   22.20    2.48
  17 -13   3   17.00    3.14
 -17  16  -3   13.58    2.62
   1 -17  -3   13.57    2.04
  17 -16   3   18.46    2.31
 -16  -1   3   15.07    1.96
 -17  19  -3   11.34    2.37
  -2 -17  -3   12.83    1.80
 -19   2   3    9.36    1.61
  17 -19   3    7.55    1.75
  17 -19   3    9.04    1.67
  -5 -17  -3    8.91    1.41
 -17  22  -3    6.39    2.00
 -22   5   3    4.40    1.08
  17 -22   3    4.57    1.70
  17 -22   3    7.06    1.44
  21 -18  -3    3.78    1.45
 -18  -3  -3    2.24    1.00
   3 -21   3    0.97    1.85
   3 -21   3    1.69    1.45
   3 -21   3    2.51    1.54
  18 -18  -3    5.75    1.60
 -18   0  -3    5.72    1.33
  18   0   3    6.91    1.70
 -18  18   3    6.99    1.88
   0 -18   3    8.09    1.80
   0 -18   3    6.56    1.64
   0 -18   3    6.33    1.73
  15 -18  -3   11.06    2.13
  18  -3   3   12.31    1.86
  -3 -15   3   11.89    1.85
 -15  18   3   14.31    2.43
  -3 -15   3   11.94    2.04
  18  -3   3   11.66    1.95
 -12  18   3    5.08    1.98
  -6 -12   3    8.64    1.80
  18  -6   3    6.69    1.80
  18  -6   3    5.94    1.51
 -12  18   3    3.74    2.36
  -6 -12   3    8.57    1.65
  18  -6   3    7.07    1.86
  -9  -9   3   14.51    1.92
  18  -9   3   10.26    1.87
  18  -9   3    9.32    1.61
  -9  18   3    9.36    2.06
  18  -9   3    9.38    1.86
  18 -12   3    6.29    1.68
  18 -12   3    6.29    1.72
 -12  -6   3    9.72    1.79
  -6  18   3    4.71    1.76
   3 -18  -3    3.73    1.56
 -18  15  -3    3.96    2.28
  18 -15   3    6.32    1.69
 -15  -3   3    5.85    1.57
  -3  18   3    3.47    1.56
 -18  18  -3    8.20    2.24
   0 -18  -3    9.83    1.60
  18 -18   3    8.74    1.70
 -18   0   3    9.40    1.67
 -18  21  -3    6.48    1.96
 -21   3   3    3.55    1.07
  18 -21   3    5.33    1.51
  23 -19  -3    2.01    1.28
 -19  -4  -3    0.28    0.87
   4 -23   3    1.25    1.25
   4 -23   3    0.71    1.38
  20 -19  -3    2.04    1.46
 -19  -1  -3    1.33    0.98
  20 -19  -3    0.08    1.29
   1 -20   3    1.36    1.72
  19   1   3    1.99    1.45
   1 -20   3    1.30    1.51
   1 -20   3    1.95    1.39
  17 -19  -3    8.18    1.70
 -19   2  -3    7.00    1.38
  -2 -17   3    7.60    1.94
  19  -2   3    8.96    1.75
  19  -2   3    9.44    1.46
 -17  19   3    8.99    1.98
  -2 -17   3    9.11    1.71
  -2 -17   3    7.24    1.74
  14 -19  -3   15.97    2.34
 -14  19   3   13.94    2.44
  19  -5   3   11.81    1.83
  -5 -14   3   14.18    2.02
  19  -5   3   14.42    2.46
  -5 -14   3   15.88    2.26
  19  -8   3   10.43    1.61
  19  -8   3   13.51    1.96
  19  -8   3   11.29    1.94
 -11  19   3    9.11    2.02
  -8 -11   3   12.25    1.97
  -8 -11   3   13.77    2.13
  -8  19   3    5.01    1.77
  19 -11   3    3.80    1.60
 -11  -8   3    6.34    1.65
  19 -11   3    3.93    1.67
 -14  -5   3   14.92    2.04
  -5  19   3   10.31    1.75
  19 -14   3   15.11    2.36
  19 -14   3   15.78    2.43
 -19  17  -3   14.45    2.50
   2 -19  -3   14.64    2.06
 -17  -2   3   14.81    1.83
  19 -17   3   16.01    2.23
 -19  20  -3    7.62    1.94
  -1 -19  -3   10.84    1.66
 -20   1   3    6.67    1.25
  19 -20   3    8.03    1.62
 -19  23  -3    2.13    1.66
  -4 -19  -3    1.93    1.31
 -23   4   3    0.44    0.95
  19 -23   3    1.23    1.33
  22 -20  -3    0.43    1.23
 -20  -2  -3    0.41    0.84
   2 -22   3    0.95    1.19
   2 -22   3   -0.07    1.37
  19 -20  -3    3.02    1.40
  19 -20  -3    3.40    1.51
 -20   1  -3    1.55    1.00
  20  -1   3    3.46    1.51
  -1 -19   3    3.17    1.55
  -1 -19   3    3.94    1.37
  -1 -19   3    3.57    1.58
 -19  20   3    4.98    1.72
  16 -20  -3   13.55    2.08
  -4 -16   3   14.86    2.19
  20  -4   3   13.62    1.66
  -4 -16   3   13.84    1.84
 -16  20   3   11.29    2.08
  20  -4   3    8.80    1.79
  13 -20  -3   21.59    2.76
  20  -7   3   11.32    1.94
  20  -7   3   13.61    1.82
  -7 -13   3   15.13    2.19
  -7 -13   3   15.98    2.00
  10 -20  -3   18.73    2.67
  20 -10   3   15.93    2.47
 -10 -10   3   14.04    2.03
  20 -10   3   17.42    2.41
  -7  20   3    4.64    1.55
  20 -13   3    6.92    1.77
  20 -13   3    7.57    1.71
 -13  -7   3    9.94    1.69
   4 -20  -3    3.74    1.50
 -20  16  -3    2.47    1.90
  20 -16   3    3.69    1.64
 -16  -4   3    4.15    1.40
   1 -20  -3   12.66    1.80
 -20  19  -3    8.90    1.88
  20 -19   3   12.95    2.09
 -19  -1   3    9.19    1.49
 -20  22  -3    8.86    1.73
  -2 -20  -3   10.16    1.65
 -22   2   3    7.27    1.23
  20 -22   3    9.03    1.61
 -21   0  -3    1.14    0.81
  21 -21  -3    2.08    1.21
  21 -21  -3    1.79    1.21
   0 -21   3    1.48    1.09
   0 -21   3    0.94    1.42
  18 -21  -3    3.57    1.43
 -21   3  -3    2.55    0.99
  18 -21  -3    4.71    1.47
  21  -3   3    4.18    1.49
 -18  21   3    3.14    1.67
  -3 -18   3    4.06    1.54
  -3 -18   3    6.43    1.45
  15 -21  -3   17.99    2.24
  -6 -15   3   16.54    2.19
  21  -6   3   15.63    1.68
  21  -6   3   17.15    2.26
  -6 -15   3   19.73    1.97
  12 -21  -3   23.44    2.58
  -9 -12   3   17.84    2.15
  21  -9   3   17.02    2.41
  -9 -12   3   15.90    1.97
  21  -9   3   16.92    2.46
   9 -21  -3    3.67    1.68
  -9  21   3    3.23    1.46
  21 -12   3    5.24    1.67
 -12  -9   3    6.34    1.47
  21 -12   3    5.61    1.63
 -15  -6   3    9.78    1.71
  21 -15   3    9.71    1.78
  21 -15   3   12.26    2.15
 -21  18  -3    4.92    1.66
   3 -21  -3    4.58    1.38
  21 -18   3    6.23    1.63
 -18  -3   3    5.40    1.21
 -21  21  -3    3.64    1.52
   0 -21  -3    5.62    1.26
  21 -21   3    5.30    1.62
 -21   0   3    3.01    0.95
  20 -22  -3    3.26    1.15
 -22   2  -3    0.96    0.74
  20 -22  -3    2.89    1.33
  22  -2   3    3.84    1.36
  -2 -20   3    2.08    1.42
 -22   5  -3    2.05    1.62
  17 -22  -3    7.08    1.53
  -5 -17   3    6.31    1.54
  22  -5   3    5.67    1.47
  14 -22  -3   13.20    2.06
  22  -8   3   13.12    2.11
  -8 -14   3   14.67    1.98
  -8 -14   3   16.14    1.69
  11 -22  -3   19.35    2.32
  22 -11   3   20.10    2.36
  22 -11   3   20.19    2.40
 -11 -11   3   21.47    2.00
   8 -22  -3    7.14    1.51
  22 -14   3    8.44    1.69
  22 -14   3   10.17    1.63
 -14  -8   3    9.06    1.39
 -22  17  -3    4.57    2.29
  22 -17   3    5.77    1.64
 -17  -5   3    5.72    1.15
 -22  20  -3    3.02    1.39
   2 -22  -3    3.61    1.22
  22 -20   3    5.56    1.66
 -20  -2   3    2.39    0.91
  19 -23  -3    1.03    1.45
  -4 -19   3    0.49    1.40
  23  -4   3    0.52    1.44
  16 -23  -3    6.38    1.46
  23  -7   3    5.36    1.46
  -7 -16   3    7.95    1.45
  13 -23  -3    8.22    1.48
 -10 -13   3   12.82    1.68
  23 -10   3    9.16    1.60
  10 -23  -3    4.31    1.31
  23 -13   3    4.30    1.46
 -13 -10   3    6.34    1.20
  23 -13   3    5.23    1.54
  23 -16   3    5.14    1.34
 -16  -7   3    3.58    1.01
  23 -16   3    4.45    1.57
 -23  19  -3    2.56    1.28
   4 -23  -3    2.21    1.58
 -19  -4   3    3.49    0.88
  23 -19   3    0.61    1.72
  15 -24  -3    3.71    1.40
  -9 -15   3    6.64    1.21
  24  -9   3    2.88    1.44
  12 -24  -3    5.00    1.25
  24 -12   3    7.06    1.46
  24 -15   3    9.66    1.56
  24 -15   3    7.47    1.40
   0  -1   4  112.39    7.09
  -1   1   4  108.83    6.74
  -1   1   4  112.78    7.25
   1   0   4  114.16    7.20
  -3   2   4  121.52    7.50
  -3   2   4  119.85    7.73
   2   1   4  124.33    7.73
   1  -3   4  121.23    8.67
  -2   0   4   77.71    5.28
   0   2   4   71.37    5.54
   2  -2   4   72.56    5.26
  -2   0   4   78.11    5.41
   2  -5   4   85.73    8.86
  -5   3   4   87.46    6.19
  -5   3   4   83.82    6.18
   3   2   4   93.33    6.22
   2  -3  -4   94.76    6.10
  -1  -2   4   93.05    7.22
  -2   3   4   94.40    6.47
   3  -1   4   92.49    6.27
  -1  -2   4   97.00    6.04
  -4   1   4   33.77    3.66
   1   3   4   33.73    3.82
  -4   1   4   33.14    3.88
  -7   4   4   79.18    5.97
   4   3   4   75.64    5.68
  -7   4   4   75.25    5.86
   3  -7   4   73.64    9.19
  -4   4   4  125.06    8.00
  -4   4   4  127.37    7.74
   0  -4   4  125.26   10.12
   4   0   4  117.75    7.71
  -4   3  -4   67.29    4.62
   1  -4  -4   70.44    4.63
  -1   4   4   59.14    5.14
  -3  -1   4   56.53    5.00
  -6   2   4   24.97    3.51
   4  -6   4   27.54    7.06
  -6   2   4   28.14    3.99
   2   4   4   28.28    3.70
  -5  -4  -4   43.23    4.36
  -9   5   4   56.88    5.28
   5   4   4   56.63    4.88
  -9   5   4   56.53    5.34
  -5  -1  -4   45.02    3.98
   1  -6   4   41.10    7.74
  -6   5   4   43.72    4.51
   5   1   4   46.00    4.26
  -6   5   4   44.37    4.48
  -5   2  -4   69.68    4.89
   3  -5  -4   73.90    5.02
  -3   5   4   60.68    5.28
  -2  -3   4   61.88    5.05
   0  -5  -4   56.05    4.11
  -5   0   4   55.94    5.09
   0   5   4   56.95    4.95
  -8   3   4   53.91    4.96
  -8   3   4   56.53    5.33
   3   5   4   54.43    4.98
   5  -8   4   63.57    8.64
   6   5   4   15.81    1.92
 -11   6   4   12.64    3.46
   5 -11   4   13.83    2.17
 -11   6   4   12.82    3.17
   5 -11   4   16.75    2.28
   6   5   4   13.74    2.14
   5 -11   4   13.91    2.14
   6   5   4   12.78    1.86
  -6  -2  -4   51.94    4.69
  -8   6   4   61.81    5.35
   2  -8   4   66.13    9.10
  -8   6   4   60.14    5.52
   5  -6  -4   60.12    4.93
  -6   1  -4   58.99    4.64
  -1  -5   4   53.45    7.92
  -5   6   4   53.78    5.00
  -7   1   4   34.97    4.60
   6  -7   4   46.56    7.32
   1   6   4   34.11    4.22
 -10   4   4   14.26    3.15
 -10   4   4   14.87    3.29
   4   6   4   17.67    3.12
  -7  -6  -4   29.21    4.23
 -13   7   4   22.38    2.49
   6 -13   4   22.45    2.73
 -13   7   4   23.76    4.28
   6 -13   4   25.70    2.64
   7   6   4   24.77    2.50
   7   6   4   26.37    2.40
   6 -13   4   27.65    2.56
   7   6   4   23.25    2.23
 -13   7   4   25.72    3.93
 -13   7   4   20.03    2.70
   7   6   4   25.01    2.19
  -7   0  -4   45.44    4.44
   7  -7  -4   46.69    4.92
   0  -7   4   49.46    8.38
  -7   7   4   51.54    4.96
   7  -6   4  130.63    9.72
  -9   2   4   48.49    5.19
   2   7   4   50.39    4.88
  -5  -7  -4   24.16    3.31
   5   7   4   20.46    2.30
   7 -12   4   19.42    2.39
   7 -12   4   20.46    2.55
 -12   5   4   19.55    3.81
 -12   5   4   18.98    2.27
   7 -12   4   19.69    2.34
   5   7   4   20.04    2.15
 -12   5   4   17.72    3.63
   5   7   4   18.49    2.05
  -8  -7  -4   18.93    1.98
   7 -15   4   18.38    2.57
   8   7   4   20.41    2.07
 -15   8   4   16.60    2.61
 -15   8   4   15.47    2.21
   7 -15   4   17.09    2.94
   7 -15   4   17.66    2.42
   8   7   4   18.31    1.93
   8   7   4   21.02    2.33
   8   7   4   18.15    2.04
  -8  -4  -4   27.31    4.38
  12  -8  -4   23.51    3.91
   4 -12   4   27.74    2.56
   8   4   4   26.31    2.54
 -12   8   4   26.39    4.48
 -12   8   4   21.36    3.75
 -12   8   4   20.05    2.85
   4 -12   4   27.37    2.61
   8   4   4   26.32    2.27
   8   4   4   27.56    2.40
   8   4   4   24.41    2.27
   4 -12   4   26.44    2.57
  -8  -1  -4   25.10    4.00
   9  -8  -4   25.86    3.83
  -9   8   4   30.89    4.78
   6  -8  -4   35.79    4.17
  -8   2  -4   36.20    4.17
  -2  -6   4   36.74    4.17
  -2  -6   4   29.05    6.79
  -6   8   4   33.56    4.40
   0  -8  -4   86.02    5.49
   0   8   4   74.21    6.21
  -8   0   4   76.47    6.46
   3   8   4   13.25    3.11
   8 -11   4   12.69    1.79
 -11   3   4   12.41    3.30
 -11   3   4   10.37    1.83
   3   8   4   11.07    1.74
   8 -11   4   14.96    2.22
   3   8   4   13.06    2.06
   8 -11   4   13.55    2.10
   3   8   4   11.88    1.98
  -6  -8  -4   42.52    3.06
  -6  -8  -4   58.22    4.85
 -14   6   4   46.12    5.43
   6   8   4   47.12    3.13
   6   8   4   47.97    3.18
   6   8   4   49.16    3.01
   8 -14   4   46.53    3.53
   8 -14   4   50.07    3.38
 -14   6   4   45.08    3.36
   6   8   4   49.59    3.28
 -14   6   4   40.43    3.69
   8 -14   4   49.14    3.76
  -9  -8  -4   16.50    1.86
   9   8   4   20.15    2.33
   8 -17   4   17.79    3.14
   9   8   4   15.50    1.90
   8 -17   4   13.68    2.16
   8 -17   4   16.94    2.30
 -17   9   4   14.29    2.14
 -17   9   4   17.58    2.40
  14  -9  -4   10.57    3.48
  -9  -5  -4    9.81    3.22
   9   5   4    9.51    1.54
   9   5   4   10.95    1.58
 -14   9   4    8.82    3.73
   9   5   4   10.63    1.53
   5 -14   4    7.24    1.76
   9   5   4   11.28    1.73
   5 -14   4    7.87    2.06
   5 -14   4    7.96    1.74
 -14   9   4    8.58    1.89
  -9  -2  -4   27.70    4.55
  11  -9  -4   30.22    4.95
 -11   9   4   27.62    5.09
   9   2   4   29.45    2.57
 -11   9   4   24.91    2.87
   9   2   4   30.00    2.43
   9   2   4   27.11    2.44
   9   2   4   28.55    2.65
   2 -11   4   31.47    2.75
   2 -11   4   32.64    2.71
   2 -11   4   27.20    2.66
   8  -9  -4   26.59    3.64
  -9   1  -4   23.45    4.20
  -8   9   4   30.38    4.61
  -9   7  -4   66.06    6.76
   2  -9  -4   73.14    5.04
  -2   9   4   52.53    5.49
  -7  -2   4   59.30    5.89
   1   9   4   81.96    4.81
   1   9   4   79.52    6.48
   1   9   4   89.12    5.02
   9 -10   4   87.65    5.89
 -10   1   4   83.53    6.86
   9 -10   4   79.09    4.89
   9 -10   4   81.67    4.88
   1   9   4   85.19    4.80
 -10   1   4   82.04    4.94
   4   9   4   25.20    2.41
   9 -13   4   28.08    3.12
   4   9   4   26.91    2.49
 -13   4   4   28.68    2.53
   9 -13   4   22.82    2.69
   9 -13   4   28.98    2.59
 -13   4   4   30.87    4.24
   4   9   4   25.75    2.29
  -7  -9  -4   22.70    1.99
   7   9   4   26.18    2.38
   9 -16   4   19.29    2.45
   7   9   4   22.53    2.07
 -16   7   4   20.79    2.54
   9 -16   4   22.89    3.26
   9 -16   4   16.39    2.55
   7   9   4   22.82    3.14
 -16   7   4   19.78    2.23
 -10  -9  -4   10.92    1.34
  19 -10  -4    7.20    1.59
 -19  10   4    8.86    1.57
   9 -19   4    7.63    1.74
   9 -19   4   15.39    2.79
   9 -19   4    5.51    1.84
 -19  10   4    9.68    1.63
  10   9   4    9.80    1.47
 -10  -6  -4    4.32    1.29
  10   6   4    5.74    1.60
  10   6   4    3.97    1.36
  10   6   4    5.01    1.43
 -16  10   4    3.65    1.74
   6 -16   4    4.15    1.77
   6 -16   4    4.51    1.65
 -16  10   4    2.82    1.60
   6 -16   4    3.16    2.19
 -10  -3  -4   12.38    3.53
  13 -10  -4   17.46    3.65
   3 -13   4   14.22    2.29
  10   3   4   13.84    1.96
   3 -13   4   13.68    2.10
  10   3   4   13.07    1.90
  10   3   4   14.20    2.27
 -13  10   4   14.21    2.09
  10   3   4   13.04    1.74
 -13  10   4   13.66    3.99
   3 -13   4   13.39    1.88
  10 -10  -4   28.45    4.79
 -10   0  -4   25.99    4.63
   0 -10   4   27.77    2.60
  10   0   4   28.19    2.69
  10   0   4   29.59    2.66
 -10  10   4   28.36    5.17
 -10  10   4   25.42    2.95
  10   0   4   28.83    2.42
   0 -10   4   28.75    2.63
  10   0   4   28.18    2.47
   1 -10  -4  110.97    6.73
  -9  -1   4  103.66    7.69
  10  -9   4  101.70    5.66
  -1  10   4  101.51    5.83
  -9  -1   4   97.68    5.59
  -1  10   4   95.56    7.32
  10  -9   4   99.09    5.69
  10  -9   4   96.77    5.85
  -1  10   4   95.37    5.72
  10 -12   4   16.52    2.53
   2  10   4   19.24    3.42
   2  10   4   18.39    2.28
 -12   2   4   19.37    3.79
   2  10   4   19.38    1.99
  10 -12   4   15.79    2.45
  10 -12   4   17.88    2.38
  10 -12   4   16.30    2.81
 -12   2   4   18.87    2.15
   2  10   4   20.31    2.31
   5  10   4   22.00    2.22
   5  10   4   23.15    2.26
   5  10   4   20.85    2.00
  10 -15   4   17.77    3.10
 -15   5   4   17.96    2.28
  10 -15   4   18.16    2.60
  10 -15   4   20.73    2.43
  18  -8  -4   16.81    1.95
  -8 -10  -4   19.08    1.79
 -18   8   4   14.64    1.96
  10 -18   4   17.04    2.29
 -18   8   4   19.89    2.32
   8  10   4   15.25    1.83
  10 -18   4   15.52    2.15
  10 -18   4   22.75    3.18
 -11 -10  -4    6.16    1.15
 -11 -10  -4    7.66    1.20
  21 -11  -4    4.39    1.32
  10 -21   4    7.49    2.25
  10 -21   4    5.56    1.53
 -21  11   4    5.49    1.21
  10 -21   4    3.31    1.58
 -11  -7  -4   14.77    1.79
   7 -18   4   11.27    1.84
  11   7   4   11.76    1.74
   7 -18   4    9.96    2.00
 -18  11   4   11.49    1.88
   7 -18   4   15.35    2.69
  11   7   4   15.92    2.22
 -18  11   4   13.84    2.23
  11   4   4    4.01    1.57
  11   4   4    2.56    1.33
   4 -15   4    3.30    1.59
   4 -15   4    0.99    1.90
  11   4   4    3.60    1.43
 -15  11   4    4.15    1.80
   4 -15   4    1.74    1.63
  11   4   4    4.44    1.47
  12 -11  -4   28.40    3.98
 -11  -1  -4   22.32    4.00
   1 -12   4   22.00    2.52
  11   1   4   23.23    2.31
  11   1   4   24.70    2.52
 -12  11   4   25.09    4.57
  11   1   4   24.10    2.23
   1 -12   4   19.61    2.49
 -12  11   4   25.89    3.00
   1 -12   4   20.82    2.49
  11   1   4   24.23    2.59
 -11   2  -4   26.94    4.28
   9 -11  -4   28.57    4.61
  11  -2   4   30.26    2.50
  -2  -9   4   30.31    2.69
  11  -2   4   29.59    2.79
  -2  -9   4   32.78    2.70
  -9  11   4   27.94    2.91
  11  -2   4   31.07    2.52
  -9  11   4   28.97    5.11
  -9  11   4   26.20    3.01
  11  -2   4   29.72    2.81
 -11   5  -4   16.20    3.85
   6 -11  -4   18.86    3.06
  -5  -6   4   24.80    4.01
  11  -5   4   18.84    3.17
  -6  11   4   22.56    2.65
  -6  11   4   25.41    4.05
  11  -5   4   23.26    2.37
  -6  11   4   23.58    2.82
  11  -5   4   21.70    2.39
  11  -5   4   23.32    2.52
  -5  -6   4   23.15    2.24
   3 -11  -4   14.23    2.73
  11  -8   4   18.83    2.43
  -8  -3   4   18.39    2.04
  11  -8   4   17.95    2.26
  -8  -3   4   24.62    4.03
  -3  11   4   16.92    2.60
  -3  11   4   19.19    2.54
  -3  11   4   18.09    3.65
  11  -8   4   18.06    2.38
   0 -11  -4   69.48    5.48
   0  11   4   67.89    5.98
 -11   0   4   73.65    4.30
   0  11   4   75.88    4.44
   0  11   4   73.32    4.38
  11 -11   4   70.88    4.46
   0  11   4   68.92    4.15
  11 -11   4   75.36    4.44
  11 -11   4   69.78    4.51
 -11   0   4   75.90    6.63
 -14   3   4   26.83    2.49
  11 -14   4   27.24    2.77
  11 -14   4   22.27    2.75
  11 -14   4   25.61    3.44
  11 -14   4   28.63    2.66
   3  11   4   28.95    2.51
   3  11   4   33.73    2.57
   3  11   4   27.71    2.24
 -14   3   4   24.63    6.34
  11 -17   4   11.47    1.90
 -17   6   4    8.87    1.63
  11 -17   4   11.35    2.02
  11 -17   4   13.83    2.80
   6  11   4   13.14    1.70
  -9 -11  -4    7.23    1.33
  -9 -11  -4    7.13    1.21
 -20   9   4    7.09    1.37
  11 -20   4    8.86    1.68
  11 -20   4   10.10    2.48
  11 -20   4    6.95    1.76
  23 -12  -4    1.99    1.54
 -12 -11  -4    4.19    1.00
 -12 -11  -4    3.62    1.12
 -23  12   4    1.78    0.92
  11 -23   4    2.17    1.44
  11 -23   4    3.07    1.86
  11 -23   4    0.38    1.36
 -12  -8  -4    4.91    1.14
  20 -12  -4    6.02    1.44
 -12  -8  -4    5.84    1.14
   8 -20   4    1.31    1.61
 -20  12   4    2.33    1.23
   8 -20   4    7.77    2.43
   8 -20   4    3.49    1.53
  12   8   4    2.47    1.21
 -12  -5  -4    7.81    1.41
  12   5   4    6.95    1.47
   5 -17   4    5.20    1.78
  12   5   4    6.43    1.70
   5 -17   4    7.17    1.69
 -17  12   4    7.75    1.77
   5 -17   4    6.97    2.32
  12   5   4    4.39    1.42
  12   2   4   21.54    2.14
 -14  12   4   19.76    2.80
  12   2   4   22.81    2.40
  12   2   4   19.81    2.05
  12   2   4   20.58    2.53
   2 -14   4   16.75    2.60
   2 -14   4   14.36    2.39
   2 -14   4   17.27    2.46
 -12   1  -4   17.14    4.24
  11 -12  -4   22.31    3.72
 -11  12   4   16.11    2.71
  -1 -11   4   20.57    2.40
 -11  12   4   18.66    4.25
  -1 -11   4   23.31    2.48
 -11  12   4   21.96    2.94
  12  -1   4   18.27    2.55
  12  -1   4   19.33    2.46
  12  -1   4   21.04    2.27
  12  -1   4   20.12    2.19
 -12   4  -4    9.44    3.88
   8 -12  -4   15.43    3.21
  -4  -8   4   18.92    2.16
  -8  12   4   18.45    2.80
  12  -4   4   19.49    2.17
  -4  -8   4   20.98    3.97
  12  -4   4   18.03    2.50
  12  -4   4   18.34    2.25
  -8  12   4   17.24    2.71
  -8  12   4   19.25    4.00
  12  -4   4   17.69    2.52
   5 -12  -4   28.92    4.27
 -12   7  -4   23.53    4.67
  -7  -5   4   32.00    2.64
  -5  12   4   34.77    3.03
  12  -7   4   31.50    2.93
  12  -7   4   30.43    2.88
  -5  12   4   32.31    4.79
  -7  -5   4   33.64    5.41
  -5  12   4   36.70    3.16
  12  -7   4   34.50    2.84
  12  -7   4   34.99    2.85
   2 -12  -4   43.75    4.34
  12 -10   4   39.33    3.17
  12 -10   4   38.07    3.05
  -2  12   4   33.43    4.79
 -10  -2   4   41.43    2.94
  -2  12   4   41.16    3.29
  12 -10   4   40.82    3.18
 -10  -2   4   39.29    5.50
  -2  12   4   37.46    3.13
  12 -13   4   34.88    3.03
   1  12   4   36.09    2.51
   1  12   4   36.04    2.79
 -13   1   4   31.54    5.32
  12 -13   4   30.09    3.02
   1  12   4   42.72    2.86
  12 -13   4   36.13    2.89
  12 -13   4   29.91    3.50
   1  12   4   26.25    4.40
 -13   1   4   36.07    2.73
   4  12   4   12.49    1.94
  12 -16   4   10.26    1.87
 -16   4   4    9.62    1.65
  12 -16   4    9.77    1.98
  12 -16   4    9.23    1.84
  12 -16   4   11.80    2.63
   4  12   4   11.95    1.66
  -7 -12  -4    4.61    1.30
  -7 -12  -4    4.03    1.44
 -19   7   4    3.03    1.30
  12 -19   4    3.93    1.67
  12 -19   4    6.74    2.43
  12 -19   4    4.14    1.75
 -10 -12  -4    5.56    1.12
 -10 -12  -4    3.88    0.99
 -22  10   4    3.44    1.02
  12 -22   4    6.30    1.99
  12 -22   4    3.20    1.38
  12 -22   4    3.80    1.43
 -13  -9  -4    4.54    0.97
  22 -13  -4    3.38    1.21
 -13  -9  -4    3.80    1.03
   9 -22   4    2.53    1.37
   9 -22   4    5.20    1.99
   9 -22   4   -0.30    1.35
 -22  13   4    2.02    0.93
 -13  -6  -4    2.97    1.15
  13   6   4    2.41    1.48
   6 -19   4    5.43    2.40
  13   6   4    2.96    1.24
   6 -19   4    1.26    1.48
   6 -19   4    1.13    1.67
 -19  13   4    2.09    1.50
  13   3   4   20.13    2.14
   3 -16   4   18.63    2.37
   3 -16   4   16.32    2.59
  13   3   4   21.83    2.62
 -16  13   4   25.22    2.83
  13   3   4   22.49    2.19
   3 -16   4   19.84    2.51
   0 -13   4   20.37    2.51
  13   0   4   22.71    2.52
  13   0   4   25.30    2.25
 -13  13   4   21.23    2.67
  13   0   4   23.77    2.71
  13   0   4   23.87    2.33
 -13  13   4   27.85    3.14
   0 -13   4   22.97    2.59
  10 -13  -4   14.90    3.33
 -13   3  -4   11.01    4.20
  -3 -10   4   18.78    2.37
  13  -3   4   15.19    2.17
 -10  13   4   16.56    2.28
  13  -3   4   14.53    2.48
  13  -3   4   16.08    2.05
  13  -3   4   15.54    2.09
  -3 -10   4   16.58    2.36
 -10  13   4   14.36    3.96
 -10  13   4   16.85    2.42
 -13   6  -4   12.57    4.34
   7 -13  -4   17.71    3.36
  -6  -7   4   22.96    2.36
  13  -6   4   22.62    2.37
  -7  13   4   23.08    3.01
  13  -6   4   22.30    2.60
  13  -6   4   24.84    2.49
  -7  13   4   23.65    4.26
  -6  -7   4   29.20    4.50
  13  -6   4   20.35    2.61
  -7  13   4   22.20    3.01
   4 -13  -4    3.45    2.39
  13  -9   4    5.75    1.67
  -9  -4   4    4.59    3.44
  -9  -4   4    3.58    1.46
  13  -9   4    5.73    1.68
  -4  13   4    7.19    3.10
  -4  13   4    6.93    1.85
  13  -9   4    6.37    1.64
  -4  13   4   10.27    2.09
   1 -13  -4   10.22    1.67
   1 -13  -4   11.51    2.79
  13 -12   4   13.42    2.00
 -12  -1   4   16.12    3.96
  -1  13   4   13.23    1.63
  13 -12   4   13.15    1.95
 -12  -1   4   14.40    2.03
  -1  13   4   13.66    2.24
  -1  13   4   10.98    3.22
  -1  13   4   19.33    2.50
  13 -12   4   15.79    2.20
  -2 -13  -4   24.46    2.00
  13 -15   4   19.75    2.56
  13 -15   4   19.35    2.60
  13 -15   4   17.58    2.96
   2  13   4   24.17    1.97
 -15   2   4   17.22    2.09
  13 -15   4   22.37    2.47
   2  13   4   24.47    2.30
  -5 -13  -4    8.23    1.41
 -18   5   4    4.05    1.36
  13 -18   4    4.26    1.72
  13 -18   4    6.70    2.44
  13 -18   4    4.32    1.74
  -8 -13  -4    0.82    1.14
  13 -21   4    1.84    1.48
  13 -21   4    3.40    2.06
 -21   8   4    1.68    1.03
  13 -21   4    2.72    1.47
  21 -14  -4    3.42    1.31
 -14  -7  -4    3.86    0.95
 -14  -7  -4    4.23    1.04
   7 -21   4    1.67    1.49
   7 -21   4    1.99    1.36
 -21  14   4    3.05    1.61
   7 -21   4    4.37    2.07
 -14  -4  -4    5.52    1.35
 -18  14   4    9.44    1.74
   4 -18   4    6.84    1.78
   4 -18   4    7.38    1.64
  14   4   4    7.91    1.75
  14   4   4   10.42    1.46
   4 -18   4    9.90    2.26
   1 -15   4   17.56    2.30
 -15  14   4   20.74    2.91
  14   1   4   17.53    2.04
   1 -15   4   16.82    2.43
  14   1   4   17.58    2.55
  14   1   4   17.94    2.04
   1 -15   4   13.69    2.40
  14   1   4   17.67    2.26
  -2 -12   4   26.85    2.72
 -12  14   4   25.00    2.81
  -2 -12   4   24.93    2.60
 -12  14   4   30.65    3.31
  14  -2   4   26.56    2.72
  14  -2   4   25.21    2.82
  14  -2   4   27.46    2.39
  14  -2   4   26.36    2.41
   9 -14  -4   15.16    3.30
 -14   5  -4    9.42    4.16
  -9  14   4   15.89    2.43
  14  -5   4   12.55    2.08
  -9  14   4   13.14    3.98
  14  -5   4   14.85    2.10
  -5  -9   4   15.37    2.13
  14  -5   4   13.80    2.00
  -5  -9   4   15.18    3.92
  14  -5   4   11.69    1.96
  -9  14   4   17.01    2.73
 -14   8  -4   13.16    4.12
   6 -14  -4   14.23    3.04
  14  -8   4   15.37    2.29
  -8  -6   4   16.34    2.09
  14  -8   4   14.19    2.17
  -8  -6   4   19.37    4.14
  -6  14   4   17.14    2.73
  -6  14   4   19.11    2.91
  -6  14   4   15.60    3.57
  14  -8   4   17.34    2.46
  -3  14   4   20.48    2.65
  14 -11   4   11.49    1.89
  14 -11   4   14.11    2.16
 -11  -3   4   17.61    4.86
  -3  14   4   14.64    2.39
 -11  -3   4   13.81    2.04
  14 -11   4   14.46    2.34
   0 -14  -4   34.66    2.46
  14 -14   4   36.19    2.80
 -14   0   4   33.20    2.64
  14 -14   4   30.90    3.36
  14 -14   4   34.18    3.00
   0  14   4   32.59    2.74
  14 -14   4   33.12    2.92
  -3 -14  -4   10.98    1.47
 -17   3   4    6.49    1.43
  14 -17   4    5.19    1.76
  14 -17   4    7.80    1.78
  14 -17   4    8.89    2.39
  14 -17   4    8.24    1.72
  -6 -14  -4    4.39    1.26
  14 -20   4    3.24    1.55
  14 -20   4    5.23    2.09
  14 -20   4    2.90    1.54
 -20   6   4    2.95    1.11
  20 -15  -4    5.38    1.44
 -15  -5  -4    4.50    1.09
   5 -20   4    2.59    1.57
   5 -20   4    7.98    2.17
 -20  15   4    5.14    1.45
   5 -20   4    2.27    1.41
  15   5   4    6.61    1.46
  15   5   4    5.44    1.12
   2 -17   4    7.67    1.62
   2 -17   4    8.52    2.03
   2 -17   4    8.02    1.79
  15   2   4    9.88    1.55
  15   2   4   11.31    1.54
  15   2   4    7.96    1.77
 -17  15   4   11.22    1.97
  14 -15  -4    8.98    2.08
  15  -1   4   14.22    2.49
  15  -1   4   18.34    2.34
  15  -1   4   16.91    1.99
  15  -1   4   15.29    1.99
 -14  15   4   21.69    3.11
 -14  15   4   15.62    2.34
  -1 -14   4   13.93    2.32
  -1 -14   4   14.45    2.34
 -11  15   4   22.98    2.86
  15  -4   4   18.03    2.65
  -4 -11   4   20.68    2.45
  15  -4   4   19.79    2.18
  -4 -11   4   18.93    2.36
  15  -4   4   20.90    2.26
  15  -4   4   20.29    2.54
 -11  15   4   23.00    3.21
  15  -7   4   21.11    2.30
  15  -7   4   19.64    2.21
  15  -7   4   13.93    2.57
  -7  -8   4   19.51    2.25
  -8  15   4   25.45    2.90
  -8  15   4   23.97    3.09
  15  -7   4   20.77    2.62
 -10  -5   4   14.81    2.06
  -5  15   4   17.28    2.82
  15 -10   4   13.67    2.13
  15 -10   4   10.13    1.88
  -5  15   4   15.23    2.21
  15 -10   4   12.74    1.94
  15 -10   4   14.88    2.24
   2 -15  -4    4.15    1.44
  -2  15   4   11.29    1.79
  15 -13   4    8.01    1.74
 -13  -2   4    7.62    1.59
  15 -13   4    6.72    1.65
  15 -13   4    5.62    1.66
 -15  16  -4   10.95    2.50
   1  15   4   11.97    1.62
  15 -16   4    9.45    2.27
  15 -16   4    9.70    1.77
  15 -16   4    9.85    1.79
 -16   1   4    8.75    1.53
  15 -16   4   10.77    1.81
 -15  19  -4    8.87    2.26
  -4 -15  -4    8.39    1.38
  15 -19   4    6.25    1.62
  15 -19   4    8.23    2.12
  15 -19   4    3.83    1.57
 -19   4   4    5.99    1.26
  15 -19   4    7.55    1.54
  -7 -15  -4    3.53    1.18
 -15  22  -4    3.38    1.81
 -22   7   4    0.99    0.98
  15 -22   4    0.86    1.34
 -16  -6  -4    1.29    0.80
 -16  -6  -4    1.43    0.99
  22 -16  -4    1.87    1.27
   6 -22   4    0.25    1.37
   6 -22   4    1.47    1.20
   6 -22   4    2.05    1.84
 -16  -3  -4    1.07    1.07
  16   3   4    2.49    1.12
 -19  16   4    2.86    1.49
   3 -19   4    2.01    1.33
   3 -19   4    4.22    1.98
  16   3   4    3.73    1.56
   3 -19   4    2.08    1.53
  16 -16  -4    6.01    1.71
  16   0   4    6.48    1.73
   0 -16   4    7.69    1.71
  16   0   4    8.55    1.48
  16   0   4    8.96    1.49
 -16  16   4    9.86    2.07
   0 -16   4    6.05    1.76
   0 -16   4    7.62    1.88
  -3 -13   4   30.80    2.79
  16  -3   4   30.82    2.57
 -13  16   4   31.22    2.90
 -13  16   4   39.14    3.50
  16  -3   4   34.04    2.87
  16  -3   4   29.76    2.57
  -3 -13   4   27.61    2.69
  16  -3   4   30.09    2.96
  -6 -10   4   13.91    2.57
  16  -6   4   15.97    2.48
  16  -6   4   12.60    2.03
  16  -6   4   12.62    1.99
  16  -6   4   15.09    2.17
  -6 -10   4   15.49    2.21
 -10  16   4   17.33    2.54
 -10  16   4   18.07    2.73
  16  -9   4   16.53    2.23
  16  -9   4   14.57    2.51
  -7  16   4   22.07    2.74
  -7  16   4   18.21    2.84
  16  -9   4   16.94    2.44
  16  -9   4   14.08    2.12
  -9  -7   4   16.78    2.21
  16 -12   4   24.44    2.62
 -12  -4   4   24.56    2.37
  -4  16   4   31.91    3.71
  16 -12   4   22.78    2.43
  16 -12   4   22.98    2.40
  -4  16   4   27.07    2.68
   1 -16  -4   13.10    1.78
  16 -15   4    8.48    1.68
  16 -15   4    9.12    1.73
 -15  -1   4   10.98    1.85
  16 -15   4   10.78    1.82
  -1  16   4   11.22    1.66
 -16  18  -4    5.45    2.10
  -2 -16  -4    7.28    1.32
  16 -18   4    2.56    1.45
  16 -18   4    4.77    1.54
  16 -18   4    5.65    1.56
 -18   2   4    4.74    1.26
  -5 -16  -4    6.64    1.23
 -16  21  -4    4.52    1.79
 -21   5   4    4.76    1.07
  16 -21   4    6.12    1.38
  21 -17  -4    1.53    1.29
 -17  -4  -4    0.67    0.97
   4 -21   4    2.04    1.44
   4 -21   4    1.02    1.14
   4 -21   4    3.25    1.85
 -17  -1  -4    2.90    1.19
   1 -18   4    1.64    1.53
 -18  17   4    3.65    1.64
   1 -18   4    2.59    1.28
   1 -18   4    2.84    1.76
  17   1   4    3.10    1.60
  17   1   4    3.88    1.17
  15 -17  -4   15.09    2.44
  17  -2   4   16.27    1.87
  17  -2   4   13.51    1.89
  -2 -15   4   12.30    2.10
  -2 -15   4   14.91    2.27
  17  -2   4   15.32    2.40
 -12  17   4   12.88    2.07
  17  -5   4   13.42    1.98
  17  -5   4   12.82    1.97
  17  -5   4   11.78    1.95
 -12  17   4   16.23    2.58
  17  -5   4   16.38    2.32
  -5 -12   4   11.91    2.08
  -5 -12   4   13.87    2.20
  17  -8   4   17.65    2.53
  17  -8   4   18.46    2.49
  17  -8   4   16.84    2.13
  -8  -9   4   17.11    2.21
  17  -8   4   16.83    2.21
  -9  17   4   24.34    2.76
  -9  17   4   18.38    3.04
  17 -11   4   10.99    1.79
  17 -11   4    9.45    1.62
 -11  -6   4   12.72    1.88
  17 -11   4   10.71    1.85
  -6  17   4   13.59    1.99
  17 -11   4   11.99    1.89
  -6  17   4   10.92    2.24
  17 -14   4    3.76    1.56
 -14  -3   4    3.31    1.46
  17 -14   4    3.19    1.60
  17 -14   4    1.87    1.40
  -3  17   4    2.34    1.47
   0 -17  -4    2.47    1.24
 -17  17  -4    1.76    1.90
  17 -17   4    0.98    1.36
  17 -17   4    1.81    1.52
 -17   0   4    1.19    1.24
  17 -17   4    0.85    1.41
  -3 -17  -4    6.70    1.23
 -17  20  -4    5.40    1.76
  17 -20   4    4.68    1.34
  17 -20   4    5.98    1.38
 -20   3   4    4.64    1.11
  20 -18  -4    3.65    1.34
 -18  -2  -4    1.96    0.96
   2 -20   4    2.44    1.45
  18   2   4    4.55    1.37
   2 -20   4    4.25    1.76
 -20  18   4    3.01    1.50
   2 -20   4    2.73    1.12
  17 -18  -4    0.59    1.35
 -18   1  -4    2.53    1.22
  18  -1   4    4.26    1.55
 -17  18   4    4.19    1.74
  -1 -17   4    3.98    1.53
  18  -1   4    2.21    1.26
  -1 -17   4    3.11    1.64
  14 -18  -4   16.88    2.52
  18  -4   4   16.00    2.34
  -4 -14   4   16.86    2.26
  18  -4   4   20.27    2.29
  18  -4   4   14.93    1.95
 -14  18   4   20.56    3.08
  -4 -14   4   13.37    2.13
  18  -7   4    8.20    1.74
  18  -7   4    6.66    1.53
  18  -7   4    7.04    1.49
  -7 -11   4    9.71    1.83
 -11  18   4    5.90    2.29
 -11  18   4    7.49    1.89
  18  -7   4    7.53    1.72
 -10  -8   4    6.45    1.64
  18 -10   4    7.19    1.72
  -8  18   4    1.24    2.11
  -8  18   4    7.68    1.84
  18 -10   4    4.50    1.64
  18 -10   4    6.03    1.45
  18 -10   4    6.06    1.51
  18 -13   4   10.05    1.65
  18 -13   4   10.09    1.79
  -5  18   4   12.93    2.06
  18 -13   4    7.35    1.48
 -13  -5   4   11.44    1.76
   2 -18  -4    2.40    1.26
  18 -16   4    0.95    1.22
  -2  18   4    0.52    1.17
  18 -16   4    2.41    1.51
 -16  -2   4    1.97    1.27
  18 -16   4    1.93    1.41
 -18  19  -4    2.03    1.61
  -1 -18  -4    4.54    1.21
  18 -19   4    2.54    1.32
  18 -19   4    3.41    1.45
 -19   1   4    3.03    1.09
  19 -19  -4    3.19    1.31
 -19   0  -4    1.54    0.97
   0 -19   4    1.26    1.40
 -19  19   4    2.45    1.60
  19   0   4    2.64    1.42
   0 -19   4    2.72    1.64
  16 -19  -4    3.95    1.54
  19  -3   4    4.27    1.27
  19  -3   4    4.12    1.48
 -16  19   4    6.48    1.88
  -3 -16   4    5.12    1.57
  -3 -16   4    4.47    1.49
  13 -19  -4    9.48    2.04
  19  -6   4    6.86    1.63
  -6 -13   4    9.21    1.77
  19  -6   4    7.71    1.43
 -13  19   4    9.41    2.21
  -6 -13   4    8.40    1.51
  19  -6   4    9.05    1.67
 -13  19   4    3.83    1.68
  19  -9   4    5.55    1.60
  19  -9   4    6.91    1.67
  19  -9   4    4.83    1.37
 -10  19   4    2.87    2.04
 -10  19   4    5.05    1.72
  -9 -10   4    5.92    1.64
  19 -12   4    3.13    1.51
  19 -12   4    3.35    1.58
 -12  -7   4    2.99    1.46
  19 -12   4    3.18    1.27
  -7  19   4    2.97    1.52
  19 -15   4    4.91    1.56
  19 -15   4    2.53    1.23
  -4  19   4    3.74    1.24
 -15  -4   4    4.47    1.38
   1 -19  -4    2.68    1.18
  19 -18   4    2.60    1.45
 -18  -1   4    3.36    1.13
  18 -20  -4    2.31    1.19
 -20   2  -4    1.20    0.97
  20  -2   4    2.73    1.45
  -2 -18   4    2.76    1.36
  -2 -18   4    2.62    1.46
 -18  20   4    2.70    1.65
  15 -20  -4    6.05    1.61
 -15  20   4    6.57    1.85
  20  -5   4    4.37    1.45
  20  -5   4    5.68    1.23
  -5 -15   4    5.09    1.50
  -5 -15   4    5.50    1.41
  12 -20  -4   10.79    1.94
  -8 -12   4    7.01    1.60
 -12  20   4    2.48    1.94
  20  -8   4    5.82    1.58
  20  -8   4    6.56    1.55
  20  -8   4    6.44    1.31
 -11  -9   4    0.85    1.36
  20 -11   4    0.96    1.18
  20 -11   4    2.43    1.48
  20 -11   4    0.58    1.52
  -9  20   4    0.54    1.41
  -6  20   4    3.15    1.20
 -14  -6   4    4.53    1.35
  20 -14   4    5.10    1.54
  20 -14   4    1.81    1.84
   3 -20  -4   -1.60    1.16
 -17  -3   4    2.27    1.11
  20 -17   4    2.96    1.49
  17 -21  -4    3.51    1.34
 -21   4  -4    1.74    0.96
  -4 -17   4    3.82    1.29
 -17  21   4    4.31    1.59
  -4 -17   4    4.52    1.40
  21  -4   4    2.80    1.45
  14 -21  -4    3.62    1.51
 -14  21   4    1.82    1.60
  21  -7   4    1.90    1.05
  21  -7   4    1.73    1.34
  -7 -14   4    1.38    1.30
  -7 -14   4    3.74    1.20
  11 -21  -4    6.16    1.64
  21 -10   4    1.88    1.37
  21 -10   4    2.08    1.06
 -10 -11   4    2.11    1.35
  21 -10   4    2.43    1.43
   8 -21  -4    4.11    1.45
  21 -13   4    5.94    1.38
  21 -13   4    5.64    1.59
 -13  -8   4    6.10    1.34
  -8  21   4    3.63    1.17
   5 -21  -4    0.93    1.14
  21 -16   4    3.36    1.55
 -16  -5   4    2.99    1.11
  16 -22  -4    2.36    1.46
  -6 -16   4    2.18    1.23
  -6 -16   4    2.70    1.14
  22  -6   4    0.78    1.41
  13 -22  -4    3.67    1.42
  22  -9   4    4.21    1.33
  22  -9   4    2.50    1.19
  22  -9   4    1.05    1.31
  -9 -13   4    3.61    1.23
  10 -22  -4    6.32    1.39
  22 -12   4    5.50    1.34
 -12 -10   4    4.93    1.26
  22 -12   4    3.99    1.44
   7 -22  -4    1.79    1.15
 -15  -7   4    4.31    1.14
  22 -15   4    4.04    1.68
  12 -23  -4    6.36    1.48
 -11 -12   4    8.11    1.25
  23 -11   4    7.74    1.48
  23 -11   4    4.50    1.45
   0   1   5   57.11    5.12
  -1   0   5   53.15    5.22
   1  -1   5   55.28    4.87
  -2   2   5   47.68    4.87
   2   0   5   50.85    4.12
   2   0   5   45.10    4.65
   1   2   5   50.05    5.07
   1   2   5   55.53    3.49
   1   2   5   51.84    3.46
  -3  -1  -5   70.79    5.18
   4  -3  -5   56.69    5.70
  -4   3   5   71.29    4.09
  -4   3   5   68.65    5.78
   3   1   5   62.81    4.05
   3   1   5   65.56    4.01
   3   1   5   66.06    5.62
   3   1   5   64.53    3.93
   3  -2   5   43.03    3.29
  -1   3   5   43.49    4.93
   3  -2   5   48.92    3.46
  -1   3   5   46.35    3.31
  -1   3   5   51.17    3.41
   2   3   5   71.28    4.45
   3  -5   5   79.07    4.53
   2   3   5   75.76    6.15
  -5   2   5   75.64    6.06
   3  -5   5   74.05    4.42
   2   3   5   73.57    4.31
   2   3   5   73.38    4.43
  -4  -2  -5  110.66    7.40
   6  -4  -5   99.21    7.85
  -6   4   5  108.76    7.84
  -6   4   5  110.56    6.17
   4   2   5  110.62    6.16
   4   2   5  112.04    6.07
   4   2   5  110.99    6.12
   2  -6   5  117.85    6.22
  -4   1  -5   63.10    4.94
  -3   4   5   53.95    5.43
   4  -1   5   54.43    3.63
  -3   4   5   62.90    3.71
   4  -1   5   55.48    3.64
   4  -1   5   54.60    3.62
  -3   4   5   57.23    3.74
   4  -4   5   34.71    2.72
   4  -4   5   35.97    2.66
   0   4   5   33.99    2.79
   0   4   5   33.87    4.59
   4  -4   5   34.11    2.88
   0   4   5   34.20    2.83
  -3  -4  -5  122.09    7.61
   3   4   5  117.25    6.23
  -7   3   5  106.06    8.00
   4  -7   5  115.36    6.38
   3   4   5  114.22    6.33
   3   4   5  115.63    6.28
   4  -7   5  110.29    6.34
   3   4   5  110.13    7.95
  -5  -3  -5   58.49    5.49
   5   3   5   66.28    3.98
   3  -8   5   62.64    4.01
   5   3   5   65.60    3.92
   3  -8   5   60.65    3.95
  -8   5   5   59.52    4.05
  -8   5   5   58.96    5.94
   5   3   5   69.00    3.89
  -8   5   5   61.15    5.89
  -5   0  -5   69.44    5.43
   5  -5  -5   61.06    5.52
   5   0   5   64.59    4.00
   5   0   5   62.61    3.92
  -5   5   5   61.71    5.81
   5   0   5   65.88    3.94
   5   0   5   65.06    3.98
  -5   5   5   63.44    4.09
  -5   3  -5   38.32    4.40
  -2   5   5   35.22    2.85
  -2   5   5   37.14    2.88
   5  -3   5   34.81    2.77
   5  -3   5   34.76    2.71
  -2   5   5   33.15    4.71
   5  -3   5   33.62    2.84
   5  -6   5   66.22    4.04
   1   5   5   58.60    5.79
   1   5   5   63.01    4.05
  -6   1   5   61.37    5.79
   1   5   5   63.31    3.98
   5  -6   5   70.79    4.11
  -4  -5  -5   45.08    4.39
   4   5   5   41.38    2.80
   5  -9   5   38.65    3.11
   5  -9   5   40.56    3.06
   4   5   5   41.24    3.04
  -9   4   5   32.90    5.07
   4   5   5   39.12    2.98
  -6  -4  -5   42.47    6.41
   4 -10   5   31.41    2.56
   6   4   5   24.47    2.48
   4 -10   5   24.98    2.49
 -10   6   5   29.62    4.90
   6   4   5   26.81    2.34
   6   4   5   25.74    2.54
   4 -10   5   27.09    2.60
 -10   6   5   20.25    2.68
   7  -6  -5   58.19    5.89
  -6  -1  -5   65.54    5.92
   6   1   5   70.37    4.25
   1  -7   5   71.65    4.28
  -7   6   5   69.17    4.34
  -7   6   5   65.49    6.24
   6   1   5   71.98    4.16
   6   1   5   72.02    4.19
   6   1   5   69.92    4.16
  -6   2  -5   51.43    4.96
   4  -6  -5   50.82    4.71
   6  -2   5   47.13    3.32
  -4   6   5   47.17    3.50
   6  -2   5   48.23    3.34
   6  -2   5   46.53    3.27
  -4   6   5   51.98    3.48
  -4   6   5   46.73    5.32
   6  -2   5   49.04    3.30
   6  -5   5   16.47    2.13
   6  -5   5   14.98    2.23
  -5  -1   5   18.42    3.35
  -1   6   5   16.64    2.24
   6  -5   5   16.58    2.27
  -1   6   5   16.10    2.31
  -1   6   5   21.15    3.82
  -8   2   5   84.90    7.07
   6  -8   5   89.09    5.30
   6  -8   5   90.90    5.30
   2   6   5   90.93    7.06
   2   6   5   93.11    5.09
   2   6   5   94.51    5.22
   2   6   5   92.28    5.27
   5   6   5   22.51    2.12
   5   6   5   20.82    2.36
   6 -11   5   23.90    2.58
   6 -11   5   20.56    2.51
   5   6   5   19.79    2.21
   6 -11   5   23.27    2.42
   5 -12   5   26.31    2.56
   5 -12   5   29.03    2.80
   7   5   5   27.35    2.36
 -12   7   5   24.30    2.80
   5 -12   5   23.58    2.65
   7   5   5   29.09    2.58
   7   5   5   25.78    2.47
   7   5   5   30.29    2.32
   9  -7  -5   34.25    4.89
  -7  -2  -5   36.43    4.85
   7   2   5   30.84    2.57
   7   2   5   31.45    2.63
   2  -9   5   38.18    2.72
   7   2   5   29.05    2.74
   2  -9   5   30.50    2.83
   7   2   5   28.54    2.61
  -9   7   5   29.72    4.90
  -9   7   5   30.79    2.93
   2  -9   5   35.41    2.79
   6  -7  -5   45.08    4.98
  -7   1  -5   45.51    5.20
  -6   7   5   48.35    3.63
  -6   7   5   52.07    3.56
  -1  -6   5   54.15    3.39
   7  -1   5   51.23    3.39
   7  -1   5   49.80    3.45
  -6   7   5   48.71    5.52
   7  -1   5   49.35    3.39
   7  -1   5   51.19    3.34
  -7   4  -5   21.32    4.51
  -3   7   5   30.53    2.83
  -3   7   5   31.18    4.74
   7  -4   5   28.70    2.89
   7  -4   5   28.72    2.57
   7  -4   5   29.01    2.63
  -3   7   5   32.45    2.79
   7  -4   5   30.64    2.65
   7  -7   5   38.84    2.81
  -7   0   5   33.21    4.42
   7  -7   5   37.61    2.92
   0   7   5   31.33    2.83
   0   7   5   29.15    4.74
   7  -7   5   38.02    2.86
   0   7   5   29.76    2.86
   3   7   5   22.80    2.30
   7 -10   5   27.01    2.44
   3   7   5   24.23    2.15
   7 -10   5   22.78    2.48
   3   7   5   22.34    2.42
   6   7   5    9.99    1.55
   6   7   5   11.25    1.59
   7 -13   5   10.35    1.76
   7 -13   5    7.61    1.77
   7 -13   5    7.70    2.36
   6   7   5    9.67    1.64
  -8  -6  -5   19.29    2.06
 -14   8   5   19.02    2.56
   6 -14   5   20.20    2.71
   6 -14   5   19.16    2.32
   8   6   5   18.87    2.29
   8   6   5   17.80    2.06
   6 -14   5   14.88    2.42
   8   6   5   20.19    1.90
   8   6   5   17.40    2.14
   3 -11   5   50.04    3.56
   8   3   5   54.88    3.43
   3 -11   5   51.04    3.53
 -11   8   5   50.17    3.66
   3 -11   5   47.74    3.47
   8   3   5   53.07    3.53
   8   3   5   50.22    3.31
   8   3   5   50.77    3.36
  -8   0  -5   16.01    3.46
   8  -8  -5   12.99    3.23
   0  -8   5   16.61    2.03
   8   0   5   10.35    1.72
  -8   8   5   10.84    3.51
   8   0   5   10.02    1.68
   8   0   5   10.56    1.69
   0  -8   5   16.54    2.23
   8   0   5   13.27    1.70
  -8   8   5   14.30    1.99
  -8   3  -5   42.35    5.48
   5  -8  -5   49.17    4.83
  -3  -5   5   51.66    3.34
  -5   8   5   53.30    3.59
  -5   8   5   45.33    5.51
   8  -3   5   51.59    3.48
   8  -3   5   52.48    3.42
   8  -3   5   51.14    3.46
   8  -3   5   52.60    3.48
  -5   8   5   49.96    3.71
   8  -6   5   32.64    2.77
  -6  -2   5   31.94    2.55
   8  -6   5   32.76    2.75
  -2   8   5   31.82    2.89
  -6  -2   5   29.92    4.79
  -2   8   5   32.08    4.86
  -2   8   5   32.91    2.84
   8  -6   5   32.97    2.79
   8  -9   5   30.58    2.67
   8  -9   5   29.18    2.62
   1   8   5   28.63    2.30
   1   8   5   28.63    2.59
  -9   1   5   30.98    2.85
   8  -9   5   29.23    2.68
   1   8   5   29.65    5.01
  -9   1   5   28.28    4.80
   1   8   5   26.82    2.65
   4   8   5   15.05    1.78
   8 -12   5   12.75    1.88
   8 -12   5   12.47    1.84
   4   8   5   15.43    1.84
   4   8   5   14.39    1.84
   7   8   5   20.24    2.16
   7   8   5   20.88    2.34
   7   8   5   20.99    1.96
   8 -15   5   17.29    2.42
   8 -15   5   19.40    2.92
   8 -15   5   18.86    2.36
  -9  -7  -5    7.20    1.30
   9   7   5    7.99    1.39
   7 -16   5    8.08    1.65
   9   7   5    9.23    1.63
   7 -16   5    5.15    1.72
 -16   9   5    8.29    1.59
   7 -16   5    9.69    2.39
   9   7   5    9.55    1.45
   4 -13   5   22.44    2.48
   9   4   5   24.01    2.22
   4 -13   5   20.07    2.48
   9   4   5   23.86    2.40
 -13   9   5   23.67    2.73
   9   4   5   25.26    2.47
   9   4   5   22.51    2.15
   4 -13   5   20.01    2.41
   9   1   5   55.15    3.66
 -10   9   5   52.99    3.83
   9   1   5   54.78    3.72
   9   1   5   54.21    3.55
   9   1   5   57.54    3.55
   1 -10   5   54.18    3.72
   1 -10   5   55.16    3.68
  -9   2  -5    4.41    3.09
   7  -9  -5    5.79    2.65
   9  -2   5    7.99    1.62
   9  -2   5    8.89    1.65
  -7   9   5    9.42    1.84
  -7   9   5    6.79    3.33
  -7   9   5    7.50    1.95
   9  -2   5    8.78    1.57
  -2  -7   5   11.05    1.76
   9  -2   5    8.09    1.60
   4  -9  -5   49.23    4.77
  -5  -4   5   52.06    3.43
   9  -5   5   53.96    3.52
  -4   9   5   49.14    3.77
  -4   9   5   51.42    3.68
   9  -5   5   53.45    3.59
   9  -5   5   56.81    3.58
  -4   9   5   50.35    5.69
   9  -5   5   52.24    3.58
  -1   9   5   17.20    2.46
  -1   9   5   24.27    4.45
   9  -8   5   18.56    2.41
   9  -8   5   21.13    2.40
  -8  -1   5   20.84    4.18
  -8  -1   5   21.20    2.11
  -1   9   5   17.81    2.41
   9  -8   5   20.87    2.35
   9 -11   5   17.45    2.29
   9 -11   5   15.08    2.32
   2   9   5   13.98    2.20
 -11   2   5   16.58    1.92
   2   9   5   13.48    1.81
   9 -11   5   15.32    2.22
   2   9   5   12.56    2.20
   5   9   5   10.91    1.65
   9 -14   5    8.73    1.80
 -14   5   5    7.58    1.51
   5   9   5   11.14    1.50
   9 -14   5    8.72    1.75
   9 -14   5    5.91    2.48
   5   9   5   10.86    1.59
   8   9   5   14.00    1.65
   9 -17   5   15.04    2.06
   8   9   5   20.11    2.18
   8   9   5   17.59    1.79
   9 -17   5   12.96    1.89
   9 -17   5   15.20    2.53
  18 -10  -5    1.88    1.31
 -10  -8  -5    5.40    1.12
   8 -18   5    3.90    1.56
   8 -18   5    4.98    1.44
 -18  10   5    8.56    1.39
   8 -18   5    4.81    2.12
  10   8   5    5.99    1.24
  10   8   5    9.53    1.52
 -10  -5  -5    9.76    1.53
   5 -15   5    7.41    1.77
   5 -15   5   11.15    2.21
 -15  10   5   11.51    1.86
   5 -15   5    9.82    1.71
  10   5   5   11.37    1.48
  10   5   5   10.01    1.69
  10   5   5   10.15    1.56
  10   5   5    9.33    1.49
   2 -12   5   20.74    2.43
  10   2   5   25.87    2.53
   2 -12   5   21.93    2.62
  10   2   5   27.93    2.32
  10   2   5   28.19    2.36
 -12  10   5   29.15    2.97
   2 -12   5   21.77    2.54
  10   2   5   27.86    2.65
  -1  -9   5   31.74    2.82
  -9  10   5   28.77    3.02
  10  -1   5   34.21    2.70
  10  -1   5   34.26    2.63
  -9  10   5   31.15    3.15
  10  -1   5   29.95    2.86
  -1  -9   5   32.05    2.67
  10  -1   5   33.90    2.78
  10  -4   5   28.44    2.71
  10  -4   5   29.74    2.51
  10  -4   5   27.61    2.67
  -6  10   5   25.39    3.10
  -6  10   5   29.36    2.90
  10  -4   5   28.64    2.63
  -4  -6   5   30.90    2.49
  -6  10   5   28.86    6.32
  -3  10   5   18.45    2.72
  -3  10   5   18.61    2.55
  10  -7   5   19.24    2.45
  -7  -3   5   18.39    2.04
  10  -7   5   19.51    2.41
  10  -7   5   22.30    2.35
 -10   0   5   15.22    1.95
   0  10   5   13.69    2.28
   0  10   5   17.45    2.03
   0  10   5   15.29    2.35
  10 -10   5   18.45    2.38
  10 -10   5   19.10    2.26
  10 -10   5   20.09    2.39
   3  10   5   25.34    2.34
   3  10   5   25.95    2.11
  10 -13   5   22.87    2.61
  10 -13   5   26.89    2.55
   3  10   5   26.48    2.56
 -13   3   5   26.01    2.23
   6  10   5   12.99    1.57
 -16   6   5    9.32    1.57
  10 -16   5    9.74    2.41
  10 -16   5    9.93    1.82
  10 -16   5   11.25    1.77
   6  10   5   13.15    2.07
   6  10   5   13.82    1.78
  -9 -10  -5    8.53    1.23
  10 -19   5    7.10    1.42
  10 -19   5    5.92    1.93
  10 -19   5    5.24    1.51
 -11  -9  -5    5.00    0.97
 -11  -9  -5    6.85    1.14
   9 -20   5    3.03    1.40
   9 -20   5    2.94    1.27
   9 -20   5    4.10    1.80
 -11  -6  -5    7.99    1.32
 -17  11   5    8.30    1.57
   6 -17   5    5.56    1.65
  11   6   5    9.39    1.64
  11   6   5    9.30    1.40
  11   6   5   12.66    1.82
   6 -17   5    6.80    1.57
   6 -17   5    9.00    2.22
  11   3   5   11.34    1.76
   3 -14   5    7.92    1.63
 -14  11   5   12.12    2.02
   3 -14   5    7.35    1.75
  11   3   5   11.47    1.86
   3 -14   5    8.46    1.99
  11   3   5   10.34    1.70
  11   3   5   12.42    1.58
  11   0   5   33.73    2.59
  11   0   5   30.86    2.79
  11   0   5   32.83    2.89
 -11  11   5   36.33    3.21
  11   0   5   34.03    2.66
   0 -11   5   28.35    2.66
   0 -11   5   27.42    2.80
  11  -3   5   18.71    2.16
  -3  -8   5   19.27    2.25
  11  -3   5   17.28    2.46
  -8  11   5   17.43    2.86
  11  -3   5   20.07    2.28
  11  -3   5   17.33    2.41
  -8  11   5   19.72    2.65
  11  -6   5   22.49    2.39
  -5  11   5   19.65    2.92
  11  -6   5   20.95    2.53
  -5  11   5   22.37    2.61
  11  -6   5   21.68    2.29
  11  -6   5   17.71    2.40
  -6  -5   5   18.13    2.15
  11  -9   5   25.56    2.46
  -9  -2   5   24.87    2.34
  11  -9   5   21.87    2.65
  11  -9   5   26.53    2.59
  -2  11   5   24.12    2.61
  -2  11   5   22.03    2.77
 -12   1   5   21.69    2.07
  11 -12   5   20.51    2.48
  11 -12   5   17.56    2.46
  11 -12   5   20.85    2.33
   1  11   5   17.44    2.28
   1  11   5   16.86    2.40
   1  11   5   18.54    1.81
   4  11   5   24.23    2.18
  11 -15   5   22.01    2.54
   4  11   5   25.00    2.46
 -15   4   5   21.89    2.07
  11 -15   5   18.81    2.77
  11 -15   5   23.74    2.36
   4  11   5   23.32    1.93
  -7 -11  -5   11.38    1.46
  11 -18   5   12.56    2.00
  11 -18   5   12.57    1.82
  11 -18   5    9.49    2.10
 -18   7   5   10.09    1.43
 -12  -7  -5    0.93    0.97
 -12  -7  -5    1.79    0.97
  19 -12  -5    0.43    1.18
  12   7   5    2.32    1.29
   7 -19   5    3.16    1.89
  12   7   5    0.58    1.05
   7 -19   5    0.85    1.39
   7 -19   5    1.26    1.24
 -12  -4  -5   10.00    1.50
  12   4   5   11.55    1.79
  12   4   5    9.84    1.48
   4 -16   5    8.25    1.56
   4 -16   5   11.26    2.15
  12   4   5    9.04    1.39
  12   4   5   10.53    1.68
   4 -16   5    6.74    1.69
 -16  12   5    9.29    1.76
  12   1   5   14.75    1.97
  12   1   5   17.02    1.99
   1 -13   5   13.75    1.94
 -13  12   5   19.70    2.80
  12   1   5   13.40    2.33
   1 -13   5   14.53    2.05
  12   1   5   13.12    2.21
 -10  12   5   22.74    3.00
  -2 -10   5   14.38    2.28
  12  -2   5   18.78    2.14
  -2 -10   5   15.39    2.13
  12  -2   5   14.80    2.33
 -10  12   5   16.21    2.49
  12  -2   5   20.45    2.20
  12  -2   5   15.62    2.47
  -5  -7   5   15.63    2.06
  -7  12   5   17.91    2.71
  -7  12   5   17.56    2.40
  12  -5   5   17.04    2.12
  12  -5   5   14.31    2.45
  12  -5   5   15.60    2.16
  12  -5   5   13.60    1.91
  12  -8   5   14.60    1.95
  -4  12   5   15.48    2.46
  -8  -4   5   13.23    1.92
  -4  12   5   15.21    2.28
  12  -8   5   16.11    2.14
  12  -8   5   14.37    2.21
  12 -11   5   38.32    3.01
 -11  -1   5   40.04    2.80
  -1  12   5   37.47    2.94
  12 -11   5   33.80    3.09
  12 -11   5   37.31    2.93
  -1  12   5   38.22    3.18
  -2 -12  -5   14.57    1.58
 -14   2   5   11.96    1.79
  12 -14   5   13.65    2.10
  12 -14   5   14.79    2.30
   2  12   5   13.78    2.02
   2  12   5   15.14    1.58
   2  12   5   14.07    2.32
  12 -14   5   13.00    1.85
  -5 -12  -5   10.93    1.51
  12 -17   5    9.01    1.71
  12 -17   5    8.29    2.11
  12 -17   5    9.19    1.62
   5  12   5    9.15    1.53
 -17   5   5    8.65    1.51
 -12  20  -5    2.64    1.70
  -8 -12  -5    4.23    1.21
  12 -20   5    4.10    1.42
 -20   8   5    4.31    0.94
  12 -20   5    4.02    1.65
  12 -20   5    4.25    1.37
 -13  -5  -5    2.97    1.08
  13   5   5    3.27    1.43
   5 -18   5    2.59    1.25
   5 -18   5    2.32    1.44
  13   5   5    3.87    1.15
   5 -18   5    4.06    1.96
 -18  13   5    3.09    1.37
  13   2   5    9.80    1.55
 -15  13   5   14.56    2.50
  13   2   5    9.87    1.51
  13   2   5    6.61    1.63
   2 -15   5    8.52    2.08
   2 -15   5    8.00    1.70
   2 -15   5    8.37    1.90
  13   2   5    9.47    1.58
  13  -1   5   14.52    2.41
 -12  13   5   14.74    2.29
  13  -1   5   16.07    2.04
  13  -1   5   15.49    1.96
  -1 -12   5   14.57    2.28
  -1 -12   5   13.12    2.04
  13  -1   5   14.74    2.27
  13  -4   5   10.98    1.91
  13  -4   5   13.81    1.91
  -4  -9   5   12.64    2.01
  13  -4   5   15.30    2.05
  -9  13   5   17.68    2.64
  13  -4   5   15.26    2.12
  -9  13   5   20.07    3.17
  13  -7   5   11.91    1.91
  13  -7   5   14.16    2.02
  13  -7   5   11.96    1.86
  -6  13   5   14.90    2.35
  13  -7   5   13.51    2.13
  -7  -6   5   13.91    1.94
  -6  13   5   15.91    2.19
  13 -10   5   35.37    2.81
  -3  13   5   33.70    3.20
  -3  13   5   33.52    2.84
  13 -10   5   30.33    2.95
 -10  -3   5   34.07    2.63
  13 -10   5   33.20    2.75
   0 -13  -5   27.44    2.08
  13 -13   5   27.15    2.60
 -13   0   5   26.10    2.26
   0  13   5   27.34    2.67
  13 -13   5   20.67    2.63
   0  13   5   26.32    2.43
  13 -13   5   26.65    2.45
  -3 -13  -5   15.27    1.55
  13 -16   5   15.68    2.15
 -16   3   5   11.12    1.64
   3  13   5   12.91    1.79
  13 -16   5   12.17    1.92
  13 -16   5    8.64    3.28
  -6 -13  -5    6.70    1.21
 -13  19  -5    3.90    1.69
  13 -19   5    7.84    1.47
  13 -19   5    5.24    1.65
 -19   6   5    7.63    1.23
  13 -19   5    6.84    1.47
 -14  -3  -5    4.01    1.22
  14   3   5    4.40    1.21
 -17  14   5    4.08    1.52
  14   3   5    3.72    1.48
   3 -17   5    3.38    1.24
   3 -17   5    1.89    1.46
   3 -17   5    4.03    1.83
   0 -14   5    8.77    1.68
   0 -14   5    8.82    1.82
 -14  14   5   13.14    2.18
  14   0   5    7.96    1.61
  14   0   5    8.79    1.51
  14   0   5    7.91    1.72
  14   0   5    9.16    1.47
  14  -3   5   12.25    1.94
  14  -3   5   10.06    1.75
  -3 -11   5   11.28    1.82
  -3 -11   5    9.45    1.66
  14  -3   5    8.05    1.79
  14  -3   5   13.30    1.92
 -11  14   5   11.00    1.86
  -8  14   5   24.17    2.73
  14  -6   5   23.45    2.26
  -8  14   5   24.59    3.11
  14  -6   5   20.90    2.26
  -6  -8   5   20.17    2.23
  14  -6   5   14.96    2.58
  14  -6   5   20.65    2.42
  -5  14   5   18.14    2.63
  -9  -5   5   14.00    1.93
  -5  14   5   17.08    2.31
  14  -9   5   15.53    2.37
  14  -9   5   16.03    2.13
  14  -9   5   14.69    2.11
  14 -12   5   21.66    2.58
 -12  -2   5   20.40    2.15
  14 -12   5   24.47    2.34
  14 -12   5   24.35    2.40
  -2  14   5   26.21    2.70
  -2  14   5   25.93    2.51
  -1 -14  -5    8.74    1.43
   1  14   5    8.84    1.45
  14 -15   5    8.19    1.64
  14 -15   5    7.27    1.59
   1  14   5   11.38    1.68
  14 -15   5    7.77    1.64
 -15   1   5    6.43    1.42
 -14  18  -5    2.50    1.71
  14 -18   5    6.83    1.41
  14 -18   5    6.96    1.45
 -18   4   5    7.34    1.28
  19 -15  -5    4.40    1.34
 -15  -4  -5    3.65    1.06
  15   4   5    3.66    1.01
  15   4   5    5.87    1.44
   4 -19   5    3.34    1.41
   4 -19   5    2.05    1.04
 -19  15   5    4.63    1.47
   4 -19   5    4.40    1.86
 -15  -1  -5    8.56    1.37
 -16  15   5   13.31    2.27
   1 -16   5    6.73    1.77
   1 -16   5    6.26    1.55
  15   1   5    9.12    1.39
  15   1   5    6.68    1.32
  15   1   5    6.40    1.56
  13 -15  -5    7.47    1.78
  15  -2   5   11.03    1.72
  15  -2   5   13.12    2.13
  15  -2   5   10.58    1.53
 -13  15   5   16.00    2.77
  -2 -13   5   11.55    1.82
  15  -2   5    8.75    1.76
  -2 -13   5   10.95    1.68
 -13  15   5   13.58    1.97
  -5 -10   5   15.65    2.08
  15  -5   5   15.02    2.47
  15  -5   5   17.60    2.03
  15  -5   5   19.17    2.31
  15  -5   5   17.52    2.01
 -10  15   5   21.07    2.50
  15  -8   5   15.33    2.06
  -7  15   5   20.33    2.56
  15  -8   5   16.46    2.44
  -7  15   5   18.53    2.83
  15  -8   5   15.29    2.01
  -8  -7   5   14.69    2.02
  15  -8   5   16.97    2.26
  15 -11   5   19.15    2.15
 -11  -4   5   17.49    2.01
  15 -11   5   18.58    2.32
  -4  15   5   21.66    2.61
  15 -11   5   18.14    2.16
  -4  15   5   25.95    2.52
  -1  15   5    9.54    1.68
  -1  15   5    9.19    1.53
 -14  -1   5    4.09    1.38
  15 -14   5    6.18    1.52
  15 -14   5    5.09    1.61
  15 -14   5    5.77    1.49
  -2 -15  -5    5.21    1.11
  15 -17   5    5.32    1.39
  15 -17   5    3.59    1.36
   2  15   5    3.03    1.06
  15 -17   5    5.22    1.37
 -17   2   5    4.05    1.15
 -16  -2  -5    1.10    1.04
  16   2   5    1.66    1.00
  16   2   5    2.41    1.46
   2 -18   5    0.53    1.29
   2 -18   5    2.68    1.75
 -18  16   5    1.77    1.49
  16  -1   5   15.09    1.74
 -15  16   5   22.73    2.48
  16  -1   5   15.17    2.16
  -1 -15   5   12.22    1.99
  16  -1   5   17.42    1.79
  -1 -15   5   15.01    2.08
  16  -1   5   19.81    2.04
  16  -4   5    7.67    1.67
  -4 -12   5    8.51    1.68
  16  -4   5    9.28    1.66
 -12  16   5   16.43    2.75
  16  -4   5    9.20    1.51
 -12  16   5    7.58    1.64
  16  -4   5    9.12    1.45
  16  -7   5   13.94    1.91
  16  -7   5   13.17    2.34
  16  -7   5   12.82    1.86
  -9  16   5   15.65    2.23
  16  -7   5   12.75    2.09
  -9  16   5   20.05    2.86
  -7  -9   5   11.45    1.81
  16 -10   5   17.54    2.04
  16 -10   5   18.11    2.25
  -6  16   5   19.67    2.30
  -6  16   5   19.17    2.70
 -10  -6   5   17.37    1.99
  16 -10   5   17.18    2.05
  16 -13   5    6.24    1.40
  16 -13   5    4.47    1.57
  -3  16   5    7.51    1.54
  -3  16   5    7.63    1.73
 -13  -3   5    4.71    1.38
  16 -13   5    4.68    1.45
   0  16   5    2.98    1.10
  16 -16   5    3.63    1.39
 -16   0   5    3.11    1.17
  16 -16   5    2.60    1.30
  16 -16   5    3.22    1.35
 -19   3   5    7.97    1.28
 -17   0  -5    4.57    1.17
  17   0   5    5.95    1.08
  17   0   5    3.01    1.47
   0 -17   5    3.16    1.33
   0 -17   5    4.59    1.65
 -17  17   5    4.23    1.60
  14 -17  -5   10.77    1.72
  -3 -14   5   14.75    1.90
  17  -3   5   14.96    1.60
  17  -3   5   15.96    2.08
  17  -3   5   16.04    1.59
  17  -3   5   19.22    1.92
  -3 -14   5   11.42    1.88
  17  -6   5   10.61    1.71
  17  -6   5   12.77    2.02
  17  -6   5    9.19    1.66
  -6 -11   5   10.41    1.67
  17  -6   5   10.38    1.48
 -11  17   5   12.86    2.06
  17  -9   5   14.46    2.07
  -8  17   5   16.98    2.19
  17  -9   5   16.50    2.22
  17  -9   5   12.35    1.78
  -9  -8   5   12.70    1.89
  17  -9   5   15.23    1.85
  -8  17   5   17.03    2.59
 -12  -5   5   12.03    1.66
  -5  17   5   17.53    2.03
  -5  17   5   13.24    2.30
  17 -12   5   14.15    1.78
  17 -12   5   12.60    1.79
  17 -12   5   13.90    2.05
  -2  17   5    2.30    1.18
 -15  -2   5    1.26    1.12
  17 -15   5    1.83    1.28
  17 -15   5    1.52    1.21
  17 -15   5    1.97    1.41
  -1 -17  -5    4.06    1.16
  17 -18   5    3.00    1.32
  17 -18   5    3.04    1.16
 -18   1   5    3.97    1.12
  17 -18   5    5.29    1.32
 -18   2  -5    3.66    1.17
  18  -2   5    3.24    1.14
  18  -2   5    4.07    1.48
  18  -2   5    5.43    1.04
 -16  18   5    4.76    1.73
  -2 -16   5    3.88    1.58
  -2 -16   5    5.04    1.25
  13 -18  -5    8.49    1.65
  18  -5   5   10.01    1.37
  18  -5   5    8.62    1.54
 -13  18   5   14.57    2.45
  18  -5   5    8.83    1.42
  -5 -13   5    9.44    1.58
  18  -5   5   11.48    1.86
  18  -8   5    8.09    1.55
  -8 -10   5    8.06    1.55
 -10  18   5    9.91    1.99
  18  -8   5    8.95    1.39
  18  -8   5    7.98    1.55
  18  -8   5    8.96    1.36
 -10  18   5    4.27    1.50
  18 -11   5   13.91    1.62
  -7  18   5   12.64    1.97
  18 -11   5   15.55    1.98
  18 -11   5   16.15    1.74
  -7  18   5   17.14    1.92
 -11  -7   5   13.18    1.68
  18 -14   5    7.30    1.53
  18 -14   5    6.36    1.27
  18 -14   5    5.94    1.23
 -14  -4   5    6.54    1.29
  -4  18   5    9.18    1.50
  18 -17   5    3.40    1.41
 -17  -1   5    1.89    1.11
  18 -17   5    2.03    1.23
  18 -17   5    1.75    1.09
 -19   4  -5    2.55    1.14
  15 -19  -5    1.38    1.21
  -4 -15   5    3.49    1.49
  19  -4   5    3.21    1.13
  19  -4   5    2.51    1.45
 -15  19   5    4.29    1.74
  19  -4   5    6.88    1.54
  12 -19  -5    7.12    1.57
 -12  19   5    6.39    1.78
  19  -7   5    6.71    1.24
  19  -7   5    4.82    1.37
  -7 -12   5    5.85    1.47
  19  -7   5    6.35    1.10
  19  -7   5    7.92    1.47
  19 -10   5   14.16    1.75
  19 -10   5   10.64    1.59
  19 -10   5   11.14    1.38
  -9  19   5   10.24    1.75
  19 -10   5    9.82    1.46
 -10  -9   5    9.88    1.54
  -9  19   5    6.37    1.40
  19 -13   5    7.65    1.24
  -6  19   5    9.54    1.54
 -13  -6   5    7.79    1.38
  19 -13   5    9.23    1.59
  19 -13   5    9.18    1.46
 -16  -3   5    4.80    1.25
  11 -20  -5    5.16    1.52
  20  -9   5    2.12    1.24
 -11  20   5    5.56    1.45
  20  -9   5    1.83    1.11
  -9 -11   5    2.08    1.37
  20  -9   5    2.62    1.44
   8 -20  -5    7.34    1.48
  20 -12   5    7.27    1.22
  20 -12   5    8.95    1.68
 -12  -8   5    7.44    1.45
   1   1   6   12.07    1.98
   1   1   6   14.21    2.08
  -1   2   6   21.00    2.22
   2  -1   6   17.11    2.18
  -1   2   6   21.72    2.34
   2   2   6   15.37    2.15
   2   2   6   15.94    2.09
   3   0   6   24.85    2.39
   3   0   6   24.02    2.38
   3   0   6   26.33    2.42
  -3   3   6   27.58    2.53
   0   3   6   22.42    2.28
   0   3   6   21.87    2.38
   3   3   6   24.72    2.32
   3   3   6   23.62    2.48
   3   3   6   26.20    2.16
  -5   4   6   38.77    2.96
   4   1   6   39.64    2.77
   4   1   6   37.37    2.88
   4   1   6   38.08    2.91
   4  -2   6   40.84    2.82
   4  -2   6   39.66    2.94
  -2   4   6   39.08    3.08
  -2   4   6   41.01    2.93
   4  -5   6   25.27    2.30
   1   4   6   20.74    2.40
   1   4   6   24.49    2.31
   4  -5   6   23.32    2.73
   4   4   6   20.06    2.35
   4  -8   6   24.17    2.26
   4   4   6   24.93    2.14
   4  -8   6   23.79    2.42
   4   4   6   21.02    2.20
  -7   5   6   39.14    3.15
   5   2   6   43.93    2.91
   5   2   6   41.32    2.98
   5   2   6   41.17    3.03
  -4   5   6   51.78    3.51
   5  -1   6   48.09    3.32
   5  -1   6   51.46    3.32
   5  -1   6   51.00    3.41
  -1   5   6   32.92    2.92
   5  -4   6   35.57    2.68
   5  -4   6   33.53    2.73
   5  -4   6   37.46    2.75
  -1   5   6   34.34    2.76
   2   5   6   23.99    2.50
   5  -7   6   31.08    2.59
   2   5   6   28.00    2.44
   5  -7   6   28.95    2.46
   5   5   6   18.31    2.09
   5 -10   6   20.27    2.27
   5 -10   6   19.00    2.12
   5   5   6   15.70    2.17
   5   5   6   21.92    2.02
  -9   6   6   25.35    2.82
   3  -9   6   29.86    2.63
   6   3   6   31.49    2.58
   6   3   6   31.25    2.52
   6   3   6   32.65    2.43
   6   0   6   36.46    2.81
  -6   6   6   35.59    2.99
   6   0   6   36.96    2.89
   6   0   6   38.81    2.76
   6  -3   6   51.82    3.41
  -3   6   6   52.08    3.46
  -3   6   6   51.97    3.65
   6  -3   6   52.93    3.45
   6  -3   6   54.08    3.43
   0   6   6   22.16    2.57
   6  -6   6   26.36    2.40
   0   6   6   24.82    2.39
   6  -6   6   29.49    2.48
   6  -6   6   24.28    2.42
   3   6   6   15.86    1.98
   6  -9   6   18.12    2.14
   3   6   6   11.93    2.14
   6  -9   6   17.76    2.23
   3   6   6   18.46    1.84
   6 -12   6    7.48    1.56
   6   6   6    7.09    1.47
   6   6   6    8.56    1.37
   6   6   6    6.50    1.43
   6 -12   6    6.99    1.47
   4 -11   6   13.48    1.90
   7   4   6   18.12    1.92
   7   4   6   14.12    2.02
   7   4   6   12.98    1.97
   4 -11   6   15.64    2.13
 -11   7   6   14.56    1.89
   7   1   6   22.51    2.38
   7   1   6   23.81    2.24
  -8   7   6   24.58    2.58
   7   1   6   19.84    2.26
   7  -2   6   33.37    2.75
   7  -2   6   36.70    2.83
  -5   7   6   36.23    2.76
   7  -2   6   34.71    2.69
  -5   7   6   33.70    3.02
   7  -2   6   37.59    2.70
  -2   7   6   28.61    2.50
   7  -5   6   28.94    2.51
   7  -5   6   29.75    2.43
  -2   7   6   22.09    2.74
   7  -5   6   27.26    2.44
   7  -8   6   23.37    2.31
   7  -8   6   24.72    2.27
   1   7   6   20.71    2.21
   1   7   6   16.83    2.35
   4   7   6    8.84    1.47
   7 -11   6    6.94    1.50
   4   7   6    8.50    1.31
   7 -11   6    7.17    1.57
   4   7   6    6.59    1.48
   7   7   6    9.14    1.27
   7 -14   6    7.52    1.39
   7 -14   6    9.18    1.53
   7   7   6   11.67    1.64
   7   7   6    8.89    1.51
   8   5   6   15.84    2.05
   5 -13   6   17.62    2.06
   5 -13   6   11.03    1.59
 -13   8   6   18.85    2.51
   8   5   6   16.63    1.98
   8   5   6   15.65    1.72
   8   2   6   16.13    2.06
   8   2   6   19.00    1.98
 -10   8   6   18.50    2.52
   8   2   6   17.53    2.17
   8   2   6   18.19    1.94
   2 -10   6   16.14    2.15
   8  -1   6    3.77    1.37
   8  -1   6    2.96    1.42
  -7   8   6    3.82    1.69
   8  -1   6    2.66    1.37
   8  -1   6    4.47    1.42
   8  -4   6   33.30    2.68
  -4   8   6   31.21    3.04
  -4   8   6   33.67    2.74
   8  -4   6   34.51    2.66
   8  -4   6   35.67    2.67
  -1   8   6   21.94    2.35
  -1   8   6   17.89    2.54
   8  -7   6   24.18    2.39
   8  -7   6   22.99    2.26
   8  -7   6   25.29    2.34
   2   8   6   13.70    1.66
   2   8   6   12.85    2.18
   2   8   6   11.49    1.75
   8 -10   6   11.33    1.66
   8 -10   6   10.52    1.65
   5   8   6    4.89    1.15
   8 -13   6    5.20    1.41
   5   8   6    4.04    1.43
   8 -13   6    6.28    1.49
   5   8   6    4.59    1.33
  -8  -8  -6    4.87    1.16
   8 -16   6    6.63    1.41
   8   8   6    6.51    1.09
   8   8   6    9.46    1.39
   8   8   6   10.07    1.58
   8 -16   6    6.80    1.27
   9   6   6   11.03    1.43
   6 -15   6   11.28    1.82
   9   6   6   13.77    1.62
   6 -15   6   10.27    1.58
   9   6   6   10.57    1.77
   9   3   6   17.10    2.03
   3 -12   6   15.68    2.15
   9   3   6   19.20    2.12
   3 -12   6   16.27    2.12
   9   3   6   19.76    1.70
   9   3   6   19.07    1.93
 -12   9   6   19.90    2.36
   9   0   6   12.88    2.14
   9   0   6   14.25    1.93
  -9   9   6   19.54    2.48
   9   0   6   12.02    2.02
   0  -9   6   16.18    2.05
   9   0   6   15.08    1.85
   9  -3   6    7.54    1.54
   9  -3   6    7.32    1.54
  -6   9   6    9.74    1.73
   9  -3   6    8.96    1.52
  -6   9   6    8.49    1.89
   9  -3   6    8.50    1.58
  -3   9   6   36.29    3.20
   9  -6   6   38.25    2.94
   9  -6   6   38.92    2.79
  -3   9   6   38.56    2.90
   9  -6   6   40.46    2.87
   0   9   6   10.46    1.82
   9  -9   6   13.55    2.02
   9  -9   6   11.20    1.62
   0   9   6   13.01    1.69
   9  -9   6   12.93    1.95
   3   9   6    5.47    1.09
   3   9   6    3.28    1.37
   3   9   6    1.96    1.49
   9 -12   6    5.04    1.45
   9 -12   6    3.88    1.41
  -6  -9  -6    3.77    1.08
   6   9   6    5.42    1.32
   6   9   6    5.47    1.03
   9 -15   6    5.19    1.39
   9 -15   6    5.33    1.27
   6   9   6    5.26    1.49
  10   4   6   16.12    1.65
  10   4   6   15.10    1.95
   4 -14   6   11.52    1.97
   4 -14   6   13.91    1.90
 -14  10   6   17.01    2.04
  10   4   6   16.98    1.96
  10   1   6    9.47    1.46
  10   1   6    7.24    1.52
  10   1   6    7.63    1.51
  10   1   6    8.15    1.31
   1 -11   6    6.54    1.46
 -11  10   6   11.16    1.85
   1 -11   6    9.44    1.67
  -8  10   6   27.84    2.83
  -8  10   6   17.99    2.37
  10  -2   6   19.14    2.18
  10  -2   6   20.87    2.40
  10  -2   6   23.84    2.17
  10  -2   6   22.10    2.13
  -2  -8   6   23.38    1.98
  10  -5   6    9.95    2.25
  -5  10   6    8.22    1.99
  10  -5   6   11.06    1.53
  10  -5   6    7.53    1.57
  -5  10   6   11.66    1.76
  10  -5   6   10.10    1.60
  -5  -5   6   11.37    1.81
  10  -8   6   22.04    2.14
  10  -8   6   22.00    2.19
  -2  10   6   15.33    2.61
  -2  10   6   18.54    2.26
  10  -8   6   20.01    2.29
  10 -11   6    7.22    1.49
   1  10   6    8.68    1.53
  10 -11   6    9.48    1.55
   1  10   6    5.36    1.68
  -4 -10  -6    5.59    1.09
   4  10   6    5.50    1.52
   4  10   6    7.23    1.39
   4  10   6    6.82    1.11
  10 -14   6    5.67    1.35
  10 -14   6    5.65    1.39
  11   5   6    7.21    1.53
 -16  11   6    6.93    1.38
  11   5   6    6.62    1.22
   5 -16   6    4.97    1.34
  11   2   6   12.31    1.42
   2 -13   6    9.87    1.73
  11   2   6   13.60    1.63
 -13  11   6   13.54    2.17
   2 -13   6    7.27    1.47
  11   2   6   10.47    1.54
  11   2   6    9.67    1.52
  11  -1   6   10.69    1.72
  11  -1   6    8.51    1.61
  11  -1   6    9.25    1.57
  -1 -10   6   11.50    1.71
 -10  11   6   15.06    2.63
  11  -1   6   11.79    1.47
  11  -4   6   30.25    2.41
  -7  11   6   30.28    2.60
  11  -4   6   32.86    2.48
  -4  -7   6   30.48    2.33
  11  -4   6   27.45    2.54
  11  -4   6   28.67    2.67
  -7  11   6   34.44    3.16
  -7  -4   6   17.91    1.83
  11  -7   6   17.26    2.01
  -4  11   6   15.05    2.55
  -4  11   6   18.81    2.26
  11  -7   6   13.51    2.16
  11  -7   6   18.86    1.89
  -1  11   6   13.31    1.92
  11 -10   6   14.79    1.91
  11 -10   6   12.91    1.81
  -1  11   6   14.52    1.75
  11 -10   6   11.64    1.70
  11 -13   6    3.67    1.30
   2  11   6    1.66    1.51
  11 -13   6    3.70    1.34
   2  11   6    4.77    1.42
  -5 -11  -6    7.78    1.26
   5  11   6    8.96    1.53
   5  11   6   10.56    1.79
  11 -16   6    5.98    1.34
  11 -16   6    6.56    1.36
 -12  -3  -6    4.97    1.07
   3 -15   6    4.97    1.61
   3 -15   6    3.92    1.29
 -15  12   6    6.23    1.39
  12   3   6    6.62    1.48
  12   3   6    6.61    1.23
  12   0   6   15.50    1.61
  12   0   6   16.16    1.73
  12   0   6   11.81    2.04
 -12  12   6   18.14    2.33
   0 -12   6   14.97    1.84
  12   0   6   13.67    2.00
  -3  -9   6   11.31    1.66
  12  -3   6    8.13    1.59
  12  -3   6    9.05    1.52
  -9  12   6    9.00    1.53
  12  -3   6   13.03    1.75
  12  -3   6   11.14    1.69
  -6  12   6   12.67    2.07
  -6  12   6   10.52    2.00
  -6  -6   6    9.41    1.54
  12  -6   6    8.12    1.89
  12  -6   6    7.13    1.57
  12  -6   6    8.86    1.51
  12  -6   6   10.10    1.46
  12  -9   6   21.09    1.96
  -3  12   6   14.97    2.50
  12  -9   6   16.45    2.23
  12  -9   6   20.38    1.98
  -9  -3   6   18.44    1.83
  -3  12   6   21.10    2.25
  12 -12   6    7.89    1.43
  12 -12   6    8.50    1.39
   0  12   6   11.47    1.60
  12 -12   6    8.84    1.44
 -12   0   6    8.88    1.38
   0  12   6    9.07    1.69
  12 -15   6    1.73    1.25
  12 -15   6    2.98    1.26
   3  12   6    4.32    1.45
   3  12   6    2.92    1.43
 -13  -1  -6    5.23    1.24
  13   1   6    9.68    1.34
   1 -14   6    6.22    1.28
 -14  13   6    8.39    1.60
  13   1   6    7.55    1.19
  13   1   6    9.12    1.44
   1 -14   6    8.53    1.57
  13   1   6    6.58    1.47
  13  -2   6    9.17    1.29
  13  -2   6    9.24    1.51
  -2 -11   6    8.70    1.43
 -11  13   6   15.20    2.35
  13  -2   6    8.63    1.49
  13  -2   6    6.37    1.46
  -8  13   6    6.77    1.52
  -5  -8   6    6.56    1.37
  13  -5   6    6.53    1.36
  13  -5   6    6.77    1.31
  13  -5   6    3.86    1.42
  13  -5   6    5.47    1.41
  -8  -5   6   12.01    1.63
  13  -8   6   11.51    1.76
  -5  13   6   13.73    2.05
  -5  13   6   13.98    1.99
  13  -8   6   12.64    1.70
  13  -8   6   10.41    1.65
  -2  13   6   19.45    2.27
  13 -11   6   19.80    1.90
  13 -11   6   20.09    1.87
  -2  13   6   22.74    2.18
 -11  -2   6   17.78    1.68
  13 -11   6   18.98    2.12
   1  13   6    7.32    1.46
   1  13   6    6.56    1.50
  13 -14   6    4.77    1.26
  13 -14   6    4.47    1.30
 -14   1   6    6.60    1.12
  14  -1   6    4.78    1.10
  14  -1   6    6.22    1.44
  14  -1   6    4.54    1.39
  14  -1   6    5.40    1.29
  -1 -13   6    5.03    1.38
 -13  14   6    6.57    1.69
  14  -4   6    2.38    1.29
  -4 -10   6    2.31    1.22
  14  -4   6    2.03    1.31
  14  -4   6    3.64    1.20
 -10  14   6    2.62    1.25
  14  -4   6    2.09    1.10
  14  -7   6   14.82    1.73
  14  -7   6   14.14    2.02
  -7  14   6   20.54    2.44
  14  -7   6   15.29    1.73
  -7  14   6   15.34    1.98
  -7  -7   6   14.40    1.65
  -4  14   6   11.63    1.61
  14 -10   6    6.58    1.27
 -10  -4   6    8.63    1.41
  14 -10   6    7.51    1.54
  14 -10   6    6.54    1.33
  -4  14   6    8.49    1.72
  14 -13   6    7.64    1.36
  14 -13   6    6.85    1.26
 -13  -1   6    6.03    1.11
  -1  14   6    8.84    1.49
  14 -13   6    5.40    1.32
  -1  14   6    8.14    1.56
  15  -3   6    5.90    1.53
  15  -3   6    3.36    1.20
  -3 -12   6    4.12    1.29
 -12  15   6    6.02    1.77
  15  -3   6    3.27    1.37
  15  -3   6    4.03    1.12
  -9  15   6    0.24    1.23
  15  -6   6    2.53    1.16
  15  -6   6    1.53    1.13
  -9  15   6    5.89    1.76
  15  -6   6    1.62    1.16
  -6  -9   6    1.26    1.18
  15  -6   6    0.76    1.35
  15  -9   6   23.18    1.99
  -6  15   6   30.03    2.43
  -9  -6   6   24.39    1.92
  15  -9   6   23.41    1.96
  15  -9   6   24.28    2.27
  -6  15   6   26.15    2.20
  15 -12   6    5.92    1.25
 -12  -3   6    5.48    1.13
  15 -12   6    5.08    1.28
  -3  15   6    8.48    1.58
  -3  15   6   10.06    1.49
  15 -12   6    6.23    1.48
  11 -16  -6    1.20    1.27
  16  -5   6    4.69    1.27
  16  -5   6    3.80    1.18
  16  -5   6    3.81    1.55
 -11  16   6    5.36    1.77
  16  -5   6    3.26    1.15
  -5 -11   6    5.23    1.26
  -8  16   6    4.21    1.29
  -8  16   6    7.58    1.77
  -8  -8   6    5.36    1.25
  16  -8   6    4.45    1.23
  16  -8   6    4.43    1.22
  16  -8   6    5.00    1.56
 -11  -5   6   17.30    1.64
  16 -11   6   16.43    1.74
  16 -11   6   17.07    1.70
  -5  16   6   16.54    2.18
  -5  16   6   18.19    1.82
  16 -11   6   17.68    2.05
   2   1   7   17.11    1.78
   3   2   7   10.71    1.36
   3   2   7   11.93    1.76
   1   3   7   10.34    1.68
   1   3   7   12.02    1.81
   4   3   7   11.96    1.43
   4   3   7   10.28    1.77
   4   0   7   14.61    1.73
  -1   4   7   12.00    1.73
  -1   4   7   12.04    1.81
   2   4   7    9.42    1.35
   2   4   7   10.23    1.44
   5   4   7    4.36    1.31
   5   4   7    4.35    1.37
   5   1   7   12.03    1.69
   5   1   7    9.97    1.39
   5  -2   7   17.68    1.74
  -3   5   7   13.60    1.91
   0   5   7   16.22    1.76
   0   5   7   15.25    1.93
   3   5   7   10.73    1.42
   3   5   7    8.57    1.45
   6   2   7    3.96    1.01
   6   2   7    3.61    1.28
   6   2   7    5.21    1.28
   6  -1   7   12.67    1.73
  -5   6   7   11.78    1.59
   6  -1   7   11.59    1.44
   6  -4   7   21.71    1.91
  -2   6   7   24.34    2.02
  -2   6   7   26.79    2.18
   1   6   7   13.60    1.95
   1   6   7   15.33    1.71
   4   6   7    4.71    1.48
   4   6   7    3.87    1.41
   7   3   7    6.36    1.44
   7   3   7    7.84    1.71
   7   3   7    5.10    0.99
   7   0   7    6.06    1.31
   7   0   7    7.65    1.23
   7   0   7    5.20    1.13
  -4   7   7   18.88    2.05
   7  -3   7   20.09    1.87
   7  -3   7   17.83    1.71
  -1   7   7   31.13    2.37
  -1   7   7   30.17    2.24
   7  -6   7   29.49    2.12
   7  -9   7    5.48    1.04
   7  -9   7    4.32    1.02
   8   1   7    4.54    1.25
   8   1   7    3.33    1.03
   8   1   7    4.85    1.46
   8  -2   7    9.83    1.37
  -6   8   7    8.90    1.55
   8  -2   7    8.52    1.21
  -3   8   7   32.54    2.44
   8  -5   7   28.88    2.12
   8  -5   7   32.42    2.20
  -3   8   7   30.03    2.25
   0   8   7   20.81    1.86
   8  -8   7   18.84    1.67
   8  -8   7   17.57    1.61
   0   8   7   21.05    2.08
   9  -1   7    6.28    1.14
  -8   9   7    4.78    1.42
   9  -1   7    8.67    1.49
   9  -1   7    4.96    1.43
  -5   9   7    9.43    1.50
   9  -4   7    9.04    1.38
   9  -4   7    9.09    1.36
  -2   9   7   19.59    2.08
   9  -7   7   18.44    1.66
   9  -7   7   17.64    1.56
  -2   9   7   18.54    1.91
  -7  10   7    3.84    1.57
  10  -3   7    5.70    1.15
  10  -3   7    4.83    1.50
  10  -6   7    5.51    1.20
  10  -6   7    5.72    1.17
  -4  10   7    6.36    1.47
  -4  10   7    5.59    1.26
  10  -6   7    6.43    1.03
   0   0   0    0.00    0.00
;
_shelx_hkl_checksum                     15303
