data_I
_chemical_name_common  '/0/modified_0'
_cell_length_a 14.67267
_cell_length_b 14.67267
_cell_length_c 14.67267
_cell_angle_alpha 60.00000
_cell_angle_beta  60.00000
_cell_angle_gamma 60.00000
_space_group_name_H-M_alt      'P 1'


loop_
_space_group_symop_operation_xyz
  'x, y, z' 

loop_
_atom_site_label
_atom_site_fract_x
_atom_site_fract_y
_atom_site_fract_z
_atom_site_type_symbol
Zr    0.11979583 0.88020417 0.88020417    Zr
Zr    0.88020417 0.11979583 0.11979583    Zr
Zr    0.11979583 0.11979583 0.88020417    Zr
Zr    0.11979583 0.88020417 0.11979583    Zr
Zr    0.88020417 0.11979583 0.88020417    Zr
Zr    0.88020417 0.88020417 0.11979583    Zr
H     0.09439581 0.71681257 0.09439581     H
H     0.71681257 0.09439581 0.09439581     H
H     0.09439581 0.09439581 0.09439581     H
H     0.09439581 0.09439581 0.71681257     H
H     0.13921644999999985 0.59277104 0.84762074     H
H     0.5927710399999999 1.13921645 0.4203917700000001     H
H     -0.15237926 0.42039176999999994 1.1392164500000002     H
H     0.42039176999999994 0.8476207399999999 0.5927710400000001     H
H     0.1392164499999998 1.4203917700000002 0.59277104     H
H     0.1392164499999997 0.8476207400000002 0.42039177000000016     H
H     0.42039177 1.13921645 0.84762074     H
H     0.5927710400000004 0.42039177 0.84762074     H
H     -0.40722896000000014 0.8476207399999999 1.1392164500000002     H
H     -0.15237926000000007 1.13921645 0.5927710400000002     H
H     -0.15237926000000016 0.5927710400000001 1.4203917700000004     H
H     0.42039176999999994 0.5927710399999999 1.1392164500000002     H
H     0.13921644999999963 0.5927710400000001 1.4203917700000004     H
H     -0.4072289600000001 1.13921645 0.84762074     H
H     -0.15237926000000002 1.4203917700000002 0.59277104     H
H     0.42039177000000005 0.8476207399999999 1.1392164500000002     H
H     0.1392164499999999 0.42039177 0.84762074     H
H     0.13921644999999966 0.8476207400000001 0.5927710400000002     H
H     0.42039177000000016 1.13921645 0.5927710400000001     H
H     0.5927710399999999 0.42039176999999994 1.1392164500000002     H
H     0.5927710399999998 0.84762074 0.4203917700000001     H
H     -0.15237926000000016 1.1392164500000002 0.42039177000000016     H
H     -0.15237926000000035 0.5927710399999999 1.1392164500000002     H
H     0.4203917700000001 0.59277104 0.84762074     H
C     -0.006212760000000258 0.60055787 0.9937872400000001     C
C     -0.3994421300000001 0.9937872399999998 1.4118676500000003     C
C     -0.0062127600000004245 1.4118676500000003 0.9937872400000001     C
C     0.4118676499999996 0.99378724 0.60055787     C
C     -0.006212760000000303 1.41186765 0.60055787     C
C     -0.0062127600000000715 0.9937872399999998 1.4118676500000003     C
C     0.4118676499999999 0.99378724 0.9937872400000001     C
C     -0.39944212999999995 1.4118676500000003 0.9937872400000001     C
C     -0.39944213000000023 0.99378724 0.9937872400000001     C
C     -0.006212759999999998 0.99378724 0.60055787     C
C     -0.0062127600000001825 0.6005578699999998 1.4118676500000003     C
C     0.4118676499999998 0.60055787 0.9937872400000001     C
C     0.07574972000000003 0.55369624 0.91094788     C
C     0.5536962399999997 1.07574972 0.45960616000000004     C
C     -0.08905212 0.45960615999999993 1.07574972     C
C     0.4596061599999997 0.9109478799999999 0.5536962400000001     C
C     0.07574972000000015 1.4596061599999997 0.55369624     C
C     0.07574971999999991 0.9109478800000002 0.45960616000000015     C
C     0.45960616000000004 1.07574972 0.91094788     C
C     0.5536962400000001 0.4596061599999998 0.91094788     C
C     -0.4463037600000001 0.9109478799999999 1.07574972     C
C     -0.08905212000000019 1.07574972 0.5536962400000002     C
C     -0.08905212000000011 0.5536962400000001 1.4596061599999999     C
C     0.4596061600000005 0.5536962399999998 1.07574972     C
C     0.07574972000000009 0.5536962400000001 1.4596061599999999     C
C     -0.4463037600000001 1.07574972 0.91094788     C
C     -0.08905211999999964 1.4596061599999997 0.55369624     C
C     0.45960616000000015 0.9109478799999999 1.07574972     C
C     0.07574971999999998 0.4596061599999998 0.91094788     C
C     0.07574971999999983 0.9109478800000002 0.5536962400000002     C
C     0.45960616000000004 1.0757497199999997 0.5536962400000001     C
C     0.5536962400000001 0.45960615999999993 1.07574972     C
C     0.5536962400000001 0.9109478799999999 0.45960616000000004     C
C     -0.08905212000000012 1.0757497200000001 0.45960616000000015     C
C     -0.08905212000000017 0.5536962399999998 1.07574972     C
C     0.45960616000000026 0.55369624 0.91094788     C
C     0.30881657000000007 0.9959518499999999 0.6992797300000001     C
C     -0.004048150000000316 1.3088165699999998 0.99595185     C
C     -0.30072027000000007 0.9959518499999999 1.30881657     C
C     -0.004048150000000316 0.6992797299999999 0.99595185     C
C     0.3088165700000002 0.9959518499999999 0.99595185     C
C     0.30881657000000007 0.6992797299999999 0.99595185     C
C     -0.004048150000000554 1.3088165699999998 0.6992797300000001     C
C     -0.004048150000000332 0.9959518499999999 0.6992797300000001     C
C     -0.004048149999999888 0.6992797299999999 1.30881657     C
C     -0.3007202700000002 1.3088165699999998 0.99595185     C
C     -0.3007202700000001 0.9959518499999999 0.99595185     C
C     -0.00404815000000011 0.9959518499999999 1.30881657     C
O     0.06730803 0.06730803 0.79807592     O
O     0.06730803 0.06730803 0.06730803     O
O     0.79807592 0.06730803 0.06730803     O
O     0.06730803 0.79807592 0.06730803     O
O     0.07472636999999994 0.7379187399999999 0.92010767     O
O     -0.26208126000000015 1.07472637 1.26724722     O
O     -0.07989232999999991 1.2672472199999998 1.07472637     O
O     0.26724722 0.92010767 0.73791874     O
O     0.07472637000000004 1.2672472199999998 0.73791874     O
O     0.07472636999999992 0.9201076699999998 1.26724722     O
O     0.2672472200000002 1.0747263699999998 0.92010767     O
O     -0.2620812599999997 1.2672472199999998 0.92010767     O
O     -0.26208126000000004 0.9201076699999998 1.07472637     O
O     -0.0798923300000002 1.07472637 0.73791874     O
O     -0.07989232999999997 0.7379187399999999 1.26724722     O
O     0.2672472200000001 0.7379187399999999 1.07472637     O
O     0.07472637000000003 0.7379187399999999 1.26724722     O
O     -0.2620812599999997 1.0747263699999998 0.92010767     O
O     -0.07989232999999984 1.2672472199999998 0.73791874     O
O     0.26724722 0.9201076699999998 1.07472637     O
O     0.07472637000000006 1.2672472199999998 0.92010767     O
O     0.07472636999999999 0.92010767 0.73791874     O
O     0.26724722 1.07472637 0.73791874     O
O     -0.26208126000000004 1.2672472199999998 1.07472637     O
O     -0.26208125999999976 0.9201076699999998 1.26724722     O
O     -0.07989232999999997 1.07472637 1.26724722     O
O     -0.07989233000000003 0.7379187399999999 1.07472637     O
O     0.26724721999999995 0.7379187399999999 0.92010767     O
O     0.94958208 0.94958208 0.15125376     O
O     0.94958208 0.94958208 0.94958208     O
O     0.15125376 0.94958208 0.94958208     O
O     0.94958208 0.15125376 0.94958208     O
