data_I
_chemical_name_common  '/180/modified_180'
_cell_length_a 14.67267
_cell_length_b 14.67267
_cell_length_c 14.67267
_cell_angle_alpha 60.00000
_cell_angle_beta  60.00000
_cell_angle_gamma 60.00000
_space_group_name_H-M_alt      'P 1'


loop_
_space_group_symop_operation_xyz
  'x, y, z' 

loop_
_atom_site_label
_atom_site_fract_x
_atom_site_fract_y
_atom_site_fract_z
_atom_site_type_symbol
Zr    0.11979583 0.88020417 0.88020417    Zr
Zr    0.88020417 0.11979583 0.11979583    Zr
Zr    0.11979583 0.11979583 0.88020417    Zr
Zr    0.11979583 0.88020417 0.11979583    Zr
Zr    0.88020417 0.11979583 0.88020417    Zr
Zr    0.88020417 0.88020417 0.11979583    Zr
H     0.09439581 0.71681257 0.09439581     H
H     0.71681257 0.09439581 0.09439581     H
H     0.09439581 0.09439581 0.09439581     H
H     0.09439581 0.09439581 0.71681257     H
H     -0.1516419700000006 0.5920337500000001 1.1399537400000002     H
H     0.5920337499999998 0.84835803 0.41965447999999966     H
H     0.13995373999999924 0.4196544800000004 0.84835803     H
H     0.4196544800000001 1.1399537400000002 0.5920337499999996     H
H     -0.1516419700000003 1.4196544800000002 0.5920337500000002     H
H     -0.1516419700000003 1.1399537400000002 0.41965448000000055     H
H     0.41965448000000005 0.8483580299999998 1.1399537400000002     H
H     0.5920337500000002 0.4196544799999996 1.1399537400000002     H
H     -0.4079662500000003 1.13995374 0.8483580300000002     H
H     0.13995373999999944 0.84835803 0.5920337500000006     H
H     0.1399537399999995 0.59203375 1.4196544800000004     H
H     0.4196544800000003 0.5920337500000001 0.84835803     H
H     -0.15164197000000018 0.5920337499999999 1.4196544800000006     H
H     -0.4079662500000001 0.8483580299999998 1.1399537400000002     H
H     0.1399537399999994 1.4196544800000004 0.5920337500000002     H
H     0.41965448 1.13995374 0.8483580300000002     H
H     -0.15164197000000046 0.4196544800000002 1.1399537400000002     H
H     -0.15164197000000024 1.1399537400000004 0.5920337500000002     H
H     0.4196544800000001 0.84835803 0.5920337499999996     H
H     0.5920337500000002 0.4196544799999997 0.84835803     H
H     0.59203375 1.1399537399999997 0.41965447999999983     H
H     0.1399537399999993 0.8483580300000002 0.41965448000000055     H
H     0.13995373999999947 0.5920337500000001 0.84835803     H
H     0.4196544800000003 0.5920337499999999 1.1399537400000002     H
C     -0.006212760000000258 0.60055787 0.9937872400000001     C
C     -0.3994421300000001 0.9937872399999998 1.4118676500000003     C
C     -0.0062127600000004245 1.4118676500000003 0.9937872400000001     C
C     0.4118676499999996 0.99378724 0.60055787     C
C     -0.006212760000000303 1.41186765 0.60055787     C
C     -0.0062127600000000715 0.9937872399999998 1.4118676500000003     C
C     0.4118676499999999 0.99378724 0.9937872400000001     C
C     -0.39944212999999995 1.4118676500000003 0.9937872400000001     C
C     -0.39944213000000023 0.99378724 0.9937872400000001     C
C     -0.006212759999999998 0.99378724 0.60055787     C
C     -0.0062127600000001825 0.6005578699999998 1.4118676500000003     C
C     0.4118676499999998 0.60055787 0.9937872400000001     C
C     -0.08817524000000072 0.5528193600000001 1.0766266     C
C     0.5528193599999998 0.9118247599999999 0.45872927999999974     C
C     0.07662659999999925 0.4587292800000001 0.9118247600000002     C
C     0.45872928 1.0766265999999998 0.5528193599999998     C
C     -0.08817524000000054 1.4587292799999998 0.5528193600000005     C
C     -0.0881752400000003 1.0766265999999998 0.45872928000000046     C
C     0.45872928 0.9118247599999997 1.0766266000000002     C
C     0.5528193600000005 0.4587292799999997 1.0766266000000002     C
C     -0.4471806400000003 1.0766265999999998 0.9118247600000003     C
C     0.07662659999999956 0.9118247600000002 0.5528193600000003     C
C     0.07662659999999963 0.5528193600000004 1.4587292800000005     C
C     0.4587292800000004 0.5528193599999995 0.9118247600000002     C
C     -0.08817524000000046 0.5528193600000004 1.4587292800000005     C
C     -0.4471806400000001 0.9118247599999997 1.0766266000000002     C
C     0.07662659999999896 1.4587292800000002 0.5528193600000005     C
C     0.45872928 1.0766265999999998 0.9118247600000003     C
C     -0.08817524000000056 0.4587292800000002 1.0766266     C
C     -0.08817524000000024 1.0766265999999998 0.5528193600000005     C
C     0.45872928 0.9118247600000001 0.5528193599999998     C
C     0.5528193600000003 0.45872927999999974 0.9118247600000002     C
C     0.55281936 1.0766266 0.45872927999999946     C
C     0.07662659999999946 0.91182476 0.45872928000000046     C
C     0.07662659999999948 0.5528193599999998 0.9118247600000002     C
C     0.45872928000000046 0.5528193599999995 1.0766266000000002     C
C     0.30881657000000007 0.9959518499999999 0.6992797300000001     C
C     -0.004048150000000316 1.3088165699999998 0.99595185     C
C     -0.30072027000000007 0.9959518499999999 1.30881657     C
C     -0.004048150000000316 0.6992797299999999 0.99595185     C
C     0.3088165700000002 0.9959518499999999 0.99595185     C
C     0.30881657000000007 0.6992797299999999 0.99595185     C
C     -0.004048150000000554 1.3088165699999998 0.6992797300000001     C
C     -0.004048150000000332 0.9959518499999999 0.6992797300000001     C
C     -0.004048149999999888 0.6992797299999999 1.30881657     C
C     -0.3007202700000002 1.3088165699999998 0.99595185     C
C     -0.3007202700000001 0.9959518499999999 0.99595185     C
C     -0.00404815000000011 0.9959518499999999 1.30881657     C
O     0.06730803 0.06730803 0.79807592     O
O     0.06730803 0.06730803 0.06730803     O
O     0.79807592 0.06730803 0.06730803     O
O     0.06730803 0.79807592 0.06730803     O
O     0.07472636999999994 0.7379187399999999 0.92010767     O
O     -0.26208126000000015 1.07472637 1.26724722     O
O     -0.07989232999999991 1.2672472199999998 1.07472637     O
O     0.26724722 0.92010767 0.73791874     O
O     0.07472637000000004 1.2672472199999998 0.73791874     O
O     0.07472636999999992 0.9201076699999998 1.26724722     O
O     0.2672472200000002 1.0747263699999998 0.92010767     O
O     -0.2620812599999997 1.2672472199999998 0.92010767     O
O     -0.26208126000000004 0.9201076699999998 1.07472637     O
O     -0.0798923300000002 1.07472637 0.73791874     O
O     -0.07989232999999997 0.7379187399999999 1.26724722     O
O     0.2672472200000001 0.7379187399999999 1.07472637     O
O     0.07472637000000003 0.7379187399999999 1.26724722     O
O     -0.2620812599999997 1.0747263699999998 0.92010767     O
O     -0.07989232999999984 1.2672472199999998 0.73791874     O
O     0.26724722 0.9201076699999998 1.07472637     O
O     0.07472637000000006 1.2672472199999998 0.92010767     O
O     0.07472636999999999 0.92010767 0.73791874     O
O     0.26724722 1.07472637 0.73791874     O
O     -0.26208126000000004 1.2672472199999998 1.07472637     O
O     -0.26208125999999976 0.9201076699999998 1.26724722     O
O     -0.07989232999999997 1.07472637 1.26724722     O
O     -0.07989233000000003 0.7379187399999999 1.07472637     O
O     0.26724721999999995 0.7379187399999999 0.92010767     O
O     0.94958208 0.94958208 0.15125376     O
O     0.94958208 0.94958208 0.94958208     O
O     0.15125376 0.94958208 0.94958208     O
O     0.94958208 0.15125376 0.94958208     O
