data_I
_chemical_name_common  '/60/modified_60'
_cell_length_a 14.67267
_cell_length_b 14.67267
_cell_length_c 14.67267
_cell_angle_alpha 60.00000
_cell_angle_beta  60.00000
_cell_angle_gamma 60.00000
_space_group_name_H-M_alt      'P 1'


loop_
_space_group_symop_operation_xyz
  'x, y, z' 

loop_
_atom_site_label
_atom_site_fract_x
_atom_site_fract_y
_atom_site_fract_z
_atom_site_type_symbol
Zr    0.11979583 0.88020417 0.88020417    Zr
Zr    0.88020417 0.11979583 0.11979583    Zr
Zr    0.11979583 0.11979583 0.88020417    Zr
Zr    0.11979583 0.88020417 0.11979583    Zr
Zr    0.88020417 0.11979583 0.88020417    Zr
Zr    0.88020417 0.88020417 0.11979583    Zr
H     0.09439581 0.71681257 0.09439581     H
H     0.71681257 0.09439581 0.09439581     H
H     0.09439581 0.09439581 0.09439581     H
H     0.09439581 0.09439581 0.71681257     H
H     0.1562359286586862 0.5033041299144279 1.0095350815124584     H
H     0.5033041299144277 1.1562359286586863 0.33092485991442766     H
H     -0.16812710151245847 0.5094900350855723 0.976767761341314     H
H     0.5094900350855721 0.831872898487542 0.6818693050855722     H
H     0.15623592865868602 1.3309248599144279 0.5033041299144277     H
H     0.15623592865868624 1.0095350815124584 0.3309248599144278     H
H     0.5094900350855723 0.9767677613413138 0.8318728984875416     H
H     0.5033041299144277 0.3309248599144277 1.009535081512458     H
H     -0.49669587008557253 1.0095350815124582 1.1562359286586865     H
H     -0.16812710151245833 0.9767677613413138 0.6818693050855724     H
H     -0.1681271015124585 0.6818693050855724 1.5094900350855724     H
H     0.5094900350855723 0.6818693050855724 0.9767677613413137     H
H     0.15623592865868602 0.5033041299144279 1.330924859914428     H
H     -0.31813069491442775 0.9767677613413138 0.8318728984875416     H
H     -0.16812710151245808 1.5094900350855724 0.6818693050855721     H
H     0.33092485991442766 1.0095350815124582 1.1562359286586865     H
H     0.15623592865868605 0.33092485991442777 1.0095350815124584     H
H     0.15623592865868624 1.0095350815124584 0.5033041299144277     H
H     0.3309248599144275 1.1562359286586865 0.5033041299144277     H
H     0.6818693050855723 0.5094900350855724 0.9767677613413134     H
H     0.6818693050855721 0.8318728984875419 0.5094900350855722     H
H     -0.16812710151245824 0.9767677613413142 0.5094900350855723     H
H     -0.1681271015124584 0.6818693050855724 0.9767677613413137     H
H     0.3309248599144276 0.503304129914428 1.009535081512458     H
C     -0.006212760000000258 0.60055787 0.9937872400000001     C
C     -0.3994421300000001 0.9937872399999998 1.4118676500000003     C
C     -0.0062127600000004245 1.4118676500000003 0.9937872400000001     C
C     0.4118676499999996 0.99378724 0.60055787     C
C     -0.006212760000000303 1.41186765 0.60055787     C
C     -0.0062127600000000715 0.9937872399999998 1.4118676500000003     C
C     0.4118676499999999 0.99378724 0.9937872400000001     C
C     -0.39944212999999995 1.4118676500000003 0.9937872400000001     C
C     -0.39944213000000023 0.99378724 0.9937872400000001     C
C     -0.006212759999999998 0.99378724 0.60055787     C
C     -0.0062127600000001825 0.6005578699999998 1.4118676500000003     C
C     0.4118676499999998 0.60055787 0.9937872400000001     C
C     0.08576550922538692 0.5030169679160257 1.0022906349425615     C
C     0.5030169679160255 1.085765509225387 0.408926887916026     C
C     -0.09755551494256157 0.5098469920839742 0.983771450774613     C
C     0.5098469920839741 0.9024444850574386 0.6039370720839744     C
C     0.08576550922538677 1.4089268879160253 0.5030169679160258     C
C     0.08576550922538702 1.0022906349425618 0.40892688791602577     C
C     0.5098469920839742 0.9837714507746129 0.9024444850574388     C
C     0.5030169679160259 0.40892688791602544 1.0022906349425615     C
C     -0.4969830320839745 1.0022906349425613 1.0857655092253873     C
C     -0.09755551494256137 0.9837714507746128 0.6039370720839744     C
C     -0.09755551494256205 0.6039370720839747 1.509846992083974     C
C     0.5098469920839745 0.603937072083974 0.9837714507746129     C
C     0.08576550922538688 0.5030169679160259 1.4089268879160255     C
C     -0.39606292791602593 0.9837714507746129 0.9024444850574388     C
C     -0.0975555149425615 1.5098469920839739 0.6039370720839742     C
C     0.40892688791602577 1.0022906349425613 1.0857655092253873     C
C     0.08576550922538692 0.40892688791602555 1.0022906349425615     C
C     0.08576550922538688 1.0022906349425615 0.5030169679160258     C
C     0.40892688791602566 1.085765509225387 0.5030169679160259     C
C     0.6039370720839744 0.5098469920839741 0.9837714507746129     C
C     0.6039370720839743 0.9024444850574385 0.5098469920839744     C
C     -0.09755551494256173 0.9837714507746134 0.5098469920839743     C
C     -0.09755551494256152 0.603937072083974 0.9837714507746129     C
C     0.40892688791602566 0.5030169679160257 1.0022906349425613     C
C     0.30881657000000007 0.9959518499999999 0.6992797300000001     C
C     -0.004048150000000316 1.3088165699999998 0.99595185     C
C     -0.30072027000000007 0.9959518499999999 1.30881657     C
C     -0.004048150000000316 0.6992797299999999 0.99595185     C
C     0.3088165700000002 0.9959518499999999 0.99595185     C
C     0.30881657000000007 0.6992797299999999 0.99595185     C
C     -0.004048150000000554 1.3088165699999998 0.6992797300000001     C
C     -0.004048150000000332 0.9959518499999999 0.6992797300000001     C
C     -0.004048149999999888 0.6992797299999999 1.30881657     C
C     -0.3007202700000002 1.3088165699999998 0.99595185     C
C     -0.3007202700000001 0.9959518499999999 0.99595185     C
C     -0.00404815000000011 0.9959518499999999 1.30881657     C
O     0.06730803 0.06730803 0.79807592     O
O     0.06730803 0.06730803 0.06730803     O
O     0.79807592 0.06730803 0.06730803     O
O     0.06730803 0.79807592 0.06730803     O
O     0.07472636999999994 0.7379187399999999 0.92010767     O
O     -0.26208126000000015 1.07472637 1.26724722     O
O     -0.07989232999999991 1.2672472199999998 1.07472637     O
O     0.26724722 0.92010767 0.73791874     O
O     0.07472637000000004 1.2672472199999998 0.73791874     O
O     0.07472636999999992 0.9201076699999998 1.26724722     O
O     0.2672472200000002 1.0747263699999998 0.92010767     O
O     -0.2620812599999997 1.2672472199999998 0.92010767     O
O     -0.26208126000000004 0.9201076699999998 1.07472637     O
O     -0.0798923300000002 1.07472637 0.73791874     O
O     -0.07989232999999997 0.7379187399999999 1.26724722     O
O     0.2672472200000001 0.7379187399999999 1.07472637     O
O     0.07472637000000003 0.7379187399999999 1.26724722     O
O     -0.2620812599999997 1.0747263699999998 0.92010767     O
O     -0.07989232999999984 1.2672472199999998 0.73791874     O
O     0.26724722 0.9201076699999998 1.07472637     O
O     0.07472637000000006 1.2672472199999998 0.92010767     O
O     0.07472636999999999 0.92010767 0.73791874     O
O     0.26724722 1.07472637 0.73791874     O
O     -0.26208126000000004 1.2672472199999998 1.07472637     O
O     -0.26208125999999976 0.9201076699999998 1.26724722     O
O     -0.07989232999999997 1.07472637 1.26724722     O
O     -0.07989233000000003 0.7379187399999999 1.07472637     O
O     0.26724721999999995 0.7379187399999999 0.92010767     O
O     0.94958208 0.94958208 0.15125376     O
O     0.94958208 0.94958208 0.94958208     O
O     0.15125376 0.94958208 0.94958208     O
O     0.94958208 0.15125376 0.94958208     O
