data_I
_chemical_name_common  '/120/modified_120'
_cell_length_a 14.67267
_cell_length_b 14.67267
_cell_length_c 14.67267
_cell_angle_alpha 60.00000
_cell_angle_beta  60.00000
_cell_angle_gamma 60.00000
_space_group_name_H-M_alt      'P 1'


loop_
_space_group_symop_operation_xyz
  'x, y, z' 

loop_
_atom_site_label
_atom_site_fract_x
_atom_site_fract_y
_atom_site_fract_z
_atom_site_type_symbol
Zr    0.11979583 0.88020417 0.88020417    Zr
Zr    0.88020417 0.11979583 0.11979583    Zr
Zr    0.11979583 0.11979583 0.88020417    Zr
Zr    0.11979583 0.88020417 0.11979583    Zr
Zr    0.88020417 0.11979583 0.88020417    Zr
Zr    0.88020417 0.88020417 0.11979583    Zr
H     0.09439581 0.71681257 0.09439581     H
H     0.71681257 0.09439581 0.09439581     H
H     0.09439581 0.09439581 0.09439581     H
H     0.09439581 0.09439581 0.71681257     H
H     0.010806718658686175 0.5029354849144275 1.1557015815124585     H
H     0.5029354849144273 1.0108067186586869 0.3305562149144275     H
H     -0.021960601512458645 0.5091213900855721 0.831338551341314     H
H     0.5091213900855721 0.9780393984875417 0.6815006600855722     H
H     0.010806718658686274 1.3305562149144277 0.5029354849144279     H
H     0.010806718658686062 1.1557015815124583 0.3305562149144281     H
H     0.5091213900855724 0.8313385513413134 0.978039398487542     H
H     0.5029354849144277 0.33055621491442777 1.155701581512458     H
H     -0.49706451508557253 1.155701581512458 1.0108067186586867     H
H     -0.02196060151245878 0.831338551341314 0.6815006600855728     H
H     -0.021960601512458457 0.6815006600855721 1.5091213900855727     H
H     0.5091213900855719 0.6815006600855724 0.8313385513413137     H
H     0.010806718658686154 0.5029354849144276 1.3305562149144285     H
H     -0.31849933991442775 0.8313385513413134 0.978039398487542     H
H     -0.02196060151245852 1.5091213900855722 0.6815006600855723     H
H     0.3305562149144277 1.155701581512458 1.0108067186586867     H
H     0.010806718658686175 0.33055621491442755 1.1557015815124585     H
H     0.010806718658686225 1.155701581512458 0.502935484914428     H
H     0.3305562149144275 1.0108067186586867 0.5029354849144275     H
H     0.681500660085572 0.5091213900855721 0.8313385513413137     H
H     0.681500660085572 0.978039398487542 0.509121390085572     H
H     -0.02196060151245858 0.8313385513413141 0.5091213900855727     H
H     -0.02196060151245821 0.6815006600855719 0.8313385513413137     H
H     0.33055621491442766 0.502935484914428 1.155701581512458     H
C     -0.006212760000000258 0.60055787 0.9937872400000001     C
C     -0.3994421300000001 0.9937872399999998 1.4118676500000003     C
C     -0.0062127600000004245 1.4118676500000003 0.9937872400000001     C
C     0.4118676499999996 0.99378724 0.60055787     C
C     -0.006212760000000303 1.41186765 0.60055787     C
C     -0.0062127600000000715 0.9937872399999998 1.4118676500000003     C
C     0.4118676499999999 0.99378724 0.9937872400000001     C
C     -0.39944212999999995 1.4118676500000003 0.9937872400000001     C
C     -0.39944213000000023 0.99378724 0.9937872400000001     C
C     -0.006212759999999998 0.99378724 0.60055787     C
C     -0.0062127600000001825 0.6005578699999998 1.4118676500000003     C
C     0.4118676499999998 0.60055787 0.9937872400000001     C
C     0.0038030292253867343 0.5025785279160255 1.0851299949425617     C
C     0.5025785279160255 1.0038030292253874 0.4084884479160257     C
C     -0.014716154942561753 0.509408552083974 0.9018089707746132     C
C     0.5094085520839741 0.9852838450574387 0.603498632083974     C
C     0.0038030292253865977 1.4084884479160258 0.5025785279160259     C
C     0.0038030292253866047 1.0851299949425617 0.4084884479160261     C
C     0.5094085520839743 0.9018089707746126 0.9852838450574389     C
C     0.5025785279160256 0.4084884479160257 1.0851299949425617     C
C     -0.4974214720839745 1.085129994942561 1.0038030292253874     C
C     -0.01471615494256171 0.901808970774613 0.6034986320839746     C
C     -0.014716154942561782 0.6034986320839743 1.5094085520839748     C
C     0.5094085520839745 0.6034986320839738 0.9018089707746129     C
C     0.0038030292253868857 0.5025785279160256 1.408488447916026     C
C     -0.39650136791602586 0.9018089707746126 0.9852838450574389     C
C     -0.014716154942561833 1.509408552083974 0.6034986320839744     C
C     0.4084884479160258 1.085129994942561 1.0038030292253874     C
C     0.0038030292253868948 0.40848844791602545 1.0851299949425617     C
C     0.0038030292253867486 1.0851299949425615 0.5025785279160262     C
C     0.4084884479160255 1.0038030292253874 0.5025785279160256     C
C     0.6034986320839741 0.5094085520839741 0.9018089707746129     C
C     0.6034986320839743 0.9852838450574386 0.5094085520839741     C
C     -0.014716154942562043 0.9018089707746131 0.5094085520839747     C
C     -0.014716154942561543 0.6034986320839738 0.9018089707746129     C
C     0.408488447916026 0.5025785279160256 1.0851299949425612     C
C     0.30881657000000007 0.9959518499999999 0.6992797300000001     C
C     -0.004048150000000316 1.3088165699999998 0.99595185     C
C     -0.30072027000000007 0.9959518499999999 1.30881657     C
C     -0.004048150000000316 0.6992797299999999 0.99595185     C
C     0.3088165700000002 0.9959518499999999 0.99595185     C
C     0.30881657000000007 0.6992797299999999 0.99595185     C
C     -0.004048150000000554 1.3088165699999998 0.6992797300000001     C
C     -0.004048150000000332 0.9959518499999999 0.6992797300000001     C
C     -0.004048149999999888 0.6992797299999999 1.30881657     C
C     -0.3007202700000002 1.3088165699999998 0.99595185     C
C     -0.3007202700000001 0.9959518499999999 0.99595185     C
C     -0.00404815000000011 0.9959518499999999 1.30881657     C
O     0.06730803 0.06730803 0.79807592     O
O     0.06730803 0.06730803 0.06730803     O
O     0.79807592 0.06730803 0.06730803     O
O     0.06730803 0.79807592 0.06730803     O
O     0.07472636999999994 0.7379187399999999 0.92010767     O
O     -0.26208126000000015 1.07472637 1.26724722     O
O     -0.07989232999999991 1.2672472199999998 1.07472637     O
O     0.26724722 0.92010767 0.73791874     O
O     0.07472637000000004 1.2672472199999998 0.73791874     O
O     0.07472636999999992 0.9201076699999998 1.26724722     O
O     0.2672472200000002 1.0747263699999998 0.92010767     O
O     -0.2620812599999997 1.2672472199999998 0.92010767     O
O     -0.26208126000000004 0.9201076699999998 1.07472637     O
O     -0.0798923300000002 1.07472637 0.73791874     O
O     -0.07989232999999997 0.7379187399999999 1.26724722     O
O     0.2672472200000001 0.7379187399999999 1.07472637     O
O     0.07472637000000003 0.7379187399999999 1.26724722     O
O     -0.2620812599999997 1.0747263699999998 0.92010767     O
O     -0.07989232999999984 1.2672472199999998 0.73791874     O
O     0.26724722 0.9201076699999998 1.07472637     O
O     0.07472637000000006 1.2672472199999998 0.92010767     O
O     0.07472636999999999 0.92010767 0.73791874     O
O     0.26724722 1.07472637 0.73791874     O
O     -0.26208126000000004 1.2672472199999998 1.07472637     O
O     -0.26208125999999976 0.9201076699999998 1.26724722     O
O     -0.07989232999999997 1.07472637 1.26724722     O
O     -0.07989233000000003 0.7379187399999999 1.07472637     O
O     0.26724721999999995 0.7379187399999999 0.92010767     O
O     0.94958208 0.94958208 0.15125376     O
O     0.94958208 0.94958208 0.94958208     O
O     0.15125376 0.94958208 0.94958208     O
O     0.94958208 0.15125376 0.94958208     O
