data_I
_chemical_name_common  '/150/modified_150'
_cell_length_a 14.67267
_cell_length_b 14.67267
_cell_length_c 14.67267
_cell_angle_alpha 60.00000
_cell_angle_beta  60.00000
_cell_angle_gamma 60.00000
_space_group_name_H-M_alt      'P 1'


loop_
_space_group_symop_operation_xyz
  'x, y, z' 

loop_
_atom_site_label
_atom_site_fract_x
_atom_site_fract_y
_atom_site_fract_z
_atom_site_type_symbol
Zr    0.11979583 0.88020417 0.88020417    Zr
Zr    0.88020417 0.11979583 0.11979583    Zr
Zr    0.11979583 0.11979583 0.88020417    Zr
Zr    0.11979583 0.88020417 0.11979583    Zr
Zr    0.88020417 0.11979583 0.88020417    Zr
Zr    0.88020417 0.88020417 0.11979583    Zr
H     0.09439581 0.71681257 0.09439581     H
H     0.71681257 0.09439581 0.09439581     H
H     0.09439581 0.09439581 0.09439581     H
H     0.09439581 0.09439581 0.71681257     H
H     -0.08035015295647543 0.5405358130885457 1.1716577967793842     H
H     0.5405358130885451 0.9196498470435251 0.368156543088545     H
H     0.06908448758513176 0.47125119504149854 0.8160338523318711     H
H     0.47125119504149826 1.0690844875851322 0.6436304650414978     H
H     -0.0803501529564751 1.3681565430885454 0.5405358130885453     H
H     -0.08035015295647538 1.1716577967793846 0.3681565430885456     H
H     0.4712511950414984 0.8160338523318708 1.0690844875851324     H
H     0.5405358130885456 0.3681565430885451 1.1716577967793842     H
H     -0.4594641869114548 1.171657796779384 0.9196498470435251     H
H     0.06908448758513194 0.8160338523318715 0.6436304650414985     H
H     0.06908448758513197 0.6436304650414985 1.4712511950414988     H
H     0.4712511950414987 0.6436304650414985 0.816033852331871     H
H     -0.08035015295647517 0.5405358130885456 1.3681565430885456     H
H     -0.35636953495850165 0.8160338523318708 1.0690844875851324     H
H     0.06908448758513172 1.4712511950414984 0.6436304650414985     H
H     0.3681565430885455 1.171657796779384 0.9196498470435251     H
H     -0.08035015295647538 0.3681565430885457 1.1716577967793842     H
H     -0.08035015295647485 1.1716577967793844 0.5405358130885453     H
H     0.36815654308854506 0.9196498470435254 0.5405358130885447     H
H     0.6436304650414989 0.47125119504149815 0.816033852331871     H
H     0.6436304650414981 1.0690844875851322 0.4712511950414981     H
H     0.06908448758513162 0.8160338523318714 0.4712511950414987     H
H     0.06908448758513204 0.6436304650414982 0.816033852331871     H
H     0.36815654308854534 0.5405358130885454 1.1716577967793844     H
C     -0.006212760000000258 0.60055787 0.9937872400000001     C
C     -0.3994421300000001 0.9937872399999998 1.4118676500000003     C
C     -0.0062127600000004245 1.4118676500000003 0.9937872400000001     C
C     0.4118676499999996 0.99378724 0.60055787     C
C     -0.006212760000000303 1.41186765 0.60055787     C
C     -0.0062127600000000715 0.9937872399999998 1.4118676500000003     C
C     0.4118676499999999 0.99378724 0.9937872400000001     C
C     -0.39944212999999995 1.4118676500000003 0.9937872400000001     C
C     -0.39944213000000023 0.99378724 0.9937872400000001     C
C     -0.006212759999999998 0.99378724 0.60055787     C
C     -0.0062127600000001825 0.6005578699999998 1.4118676500000003     C
C     0.4118676499999998 0.60055787 0.9937872400000001     C
C     -0.04775120128602617 0.5237449751679598 1.0943513309501063     C
C     0.5237449751679597 0.9522487987139742 0.4296548951679595     C
C     0.03670512943638228 0.4879211444759699 0.8933625016116776     C
C     0.4879211444759693 1.0367051294363827 0.5820112244759696     C
C     -0.047751201286026 1.4296548951679595 0.5237449751679604     C
C     -0.047751201286025766 1.0943513309501065 0.4296548951679598     C
C     0.4879211444759698 0.8933625016116773 1.0367051294363832     C
C     0.5237449751679599 0.42965489516795946 1.0943513309501065     C
C     -0.4762550248320406 1.0943513309501056 0.952248798713975     C
C     0.03670512943638265 0.893362501611678 0.5820112244759699     C
C     0.03670512943638234 0.5820112244759704 1.4879211444759703     C
C     0.4879211444759702 0.5820112244759694 0.8933625016116777     C
C     -0.04775120128602603 0.5237449751679599 1.4296548951679602     C
C     -0.41798877552403035 0.8933625016116773 1.0367051294363832     C
C     0.03670512943638191 1.4879211444759697 0.5820112244759703     C
C     0.4296548951679597 1.0943513309501056 0.952248798713975     C
C     -0.04775120128602595 0.4296548951679598 1.0943513309501063     C
C     -0.04775120128602572 1.0943513309501063 0.5237449751679599     C
C     0.4296548951679592 0.9522487987139745 0.5237449751679595     C
C     0.5820112244759703 0.4879211444759696 0.8933625016116777     C
C     0.5820112244759701 1.0367051294363827 0.48792114447596946     C
C     0.036705129436382516 0.8933625016116779 0.48792114447597007     C
C     0.036705129436382614 0.5820112244759696 0.8933625016116776     C
C     0.42965489516795974 0.5237449751679594 1.0943513309501063     C
C     0.30881657000000007 0.9959518499999999 0.6992797300000001     C
C     -0.004048150000000316 1.3088165699999998 0.99595185     C
C     -0.30072027000000007 0.9959518499999999 1.30881657     C
C     -0.004048150000000316 0.6992797299999999 0.99595185     C
C     0.3088165700000002 0.9959518499999999 0.99595185     C
C     0.30881657000000007 0.6992797299999999 0.99595185     C
C     -0.004048150000000554 1.3088165699999998 0.6992797300000001     C
C     -0.004048150000000332 0.9959518499999999 0.6992797300000001     C
C     -0.004048149999999888 0.6992797299999999 1.30881657     C
C     -0.3007202700000002 1.3088165699999998 0.99595185     C
C     -0.3007202700000001 0.9959518499999999 0.99595185     C
C     -0.00404815000000011 0.9959518499999999 1.30881657     C
O     0.06730803 0.06730803 0.79807592     O
O     0.06730803 0.06730803 0.06730803     O
O     0.79807592 0.06730803 0.06730803     O
O     0.06730803 0.79807592 0.06730803     O
O     0.07472636999999994 0.7379187399999999 0.92010767     O
O     -0.26208126000000015 1.07472637 1.26724722     O
O     -0.07989232999999991 1.2672472199999998 1.07472637     O
O     0.26724722 0.92010767 0.73791874     O
O     0.07472637000000004 1.2672472199999998 0.73791874     O
O     0.07472636999999992 0.9201076699999998 1.26724722     O
O     0.2672472200000002 1.0747263699999998 0.92010767     O
O     -0.2620812599999997 1.2672472199999998 0.92010767     O
O     -0.26208126000000004 0.9201076699999998 1.07472637     O
O     -0.0798923300000002 1.07472637 0.73791874     O
O     -0.07989232999999997 0.7379187399999999 1.26724722     O
O     0.2672472200000001 0.7379187399999999 1.07472637     O
O     0.07472637000000003 0.7379187399999999 1.26724722     O
O     -0.2620812599999997 1.0747263699999998 0.92010767     O
O     -0.07989232999999984 1.2672472199999998 0.73791874     O
O     0.26724722 0.9201076699999998 1.07472637     O
O     0.07472637000000006 1.2672472199999998 0.92010767     O
O     0.07472636999999999 0.92010767 0.73791874     O
O     0.26724722 1.07472637 0.73791874     O
O     -0.26208126000000004 1.2672472199999998 1.07472637     O
O     -0.26208125999999976 0.9201076699999998 1.26724722     O
O     -0.07989232999999997 1.07472637 1.26724722     O
O     -0.07989233000000003 0.7379187399999999 1.07472637     O
O     0.26724721999999995 0.7379187399999999 0.92010767     O
O     0.94958208 0.94958208 0.15125376     O
O     0.94958208 0.94958208 0.94958208     O
O     0.15125376 0.94958208 0.94958208     O
O     0.94958208 0.15125376 0.94958208     O
