data_I
_chemical_name_common  'CH3/150/modified_CH3_150'
_cell_length_a 14.67267
_cell_length_b 14.67267
_cell_length_c 14.67267
_cell_angle_alpha 60.00000
_cell_angle_beta  60.00000
_cell_angle_gamma 60.00000
_space_group_name_H-M_alt      'P 1'


loop_
_space_group_symop_operation_xyz
  'x, y, z' 

loop_
_atom_site_label
_atom_site_fract_x
_atom_site_fract_y
_atom_site_fract_z
_atom_site_type_symbol
Zr    0.11979582999999991 0.88020417 0.88020417    Zr
Zr    0.8802041699999997 0.11979582999999998 0.11979583    Zr
Zr    0.11979582999999996 0.11979583000000002 0.88020417    Zr
Zr    0.11979583000000003 0.8802041699999997 0.11979583    Zr
Zr    0.8802041699999997 0.11979583000000002 0.88020417    Zr
Zr    0.8802041699999998 0.8802041699999997 0.11979583    Zr
H     0.09439580999999993 0.71681257 0.09439581     H
H     0.7168125700000001 0.09439580999999998 0.09439581     H
H     0.09439580999999996 0.09439580999999998 0.09439581     H
H     0.09439580999999994 0.09439581 0.71681257     H
H     0.06908448758513176 0.47125119504149854 0.8160338523318711     H
H     0.47125119504149765 1.0690844875851324 0.643630465041498     H
H     -0.459464186911455 1.171657796779384 0.9196498470435251     H
H     0.06908448758513194 0.8160338523318715 0.6436304650414985     H
H     0.06908448758513193 0.6436304650414986 1.471251195041498     H
H     0.47125119504149815 0.6436304650414986 0.816033852331871     H
H     -0.08035015295647492 0.5405358130885453 1.368156543088545     H
H     -0.35636953495850165 0.8160338523318708 1.0690844875851324     H
H     0.06908448758513158 1.4712511950414984 0.6436304650414978     H
H     0.3681565430885455 1.171657796779384 0.9196498470435251     H
H     -0.08035015295647538 0.3681565430885457 1.1716577967793842     H
H     -0.08035015295647471 1.1716577967793842 0.5405358130885453     H
H     0.3681565430885444 0.9196498470435253 0.540535813088545     H
H     0.6436304650414987 0.4712511950414983 0.8160338523318708     H
H     0.6436304650414975 1.0690844875851322 0.4712511950414981     H
H     0.06908448758513137 0.8160338523318716 0.4712511950414987     H
H     0.06908448758513204 0.6436304650414982 0.816033852331871     H
H     0.3681565430885451 0.5405358130885455 1.1716577967793842     H
C     -0.006212760000000258 0.60055787 0.9937872400000001     C
C     -0.3994421300000001 0.9937872399999998 1.4118676500000003     C
C     -0.0062127600000004245 1.4118676500000003 0.9937872400000001     C
C     0.41186764999999936 0.99378724 0.60055787     C
C     -0.006212760000000525 1.41186765 0.60055787     C
C     -0.0062127600000000715 0.9937872399999998 1.4118676500000003     C
C     0.4118676499999999 0.99378724 0.9937872400000001     C
C     -0.39944212999999973 1.4118676500000003 0.9937872400000001     C
C     -0.39944213000000023 0.99378724 0.9937872400000001     C
C     -0.006212759999999998 0.99378724 0.60055787     C
C     -0.006212760000000127 0.6005578699999998 1.4118676500000003     C
C     0.4118676499999998 0.60055787 0.9937872400000001     C
C     -0.04775120128602617 0.5237449751679598 1.0943513309501063     C
C     0.5237449751679589 0.9522487987139744 0.4296548951679595     C
C     0.03670512943638228 0.4879211444759699 0.8933625016116776     C
C     0.48792114447596874 1.0367051294363827 0.58201122447597     C
C     -0.04775120128602656 1.4296548951679595 0.5237449751679597     C
C     -0.047751201286025766 1.0943513309501065 0.4296548951679598     C
C     0.4879211444759698 0.8933625016116773 1.0367051294363832     C
C     0.5237449751679597 0.4296548951679595 1.0943513309501063     C
C     -0.47625502483204074 1.0943513309501058 0.9522487987139753     C
C     0.03670512943638284 0.8933625016116777 0.5820112244759699     C
C     0.036705129436382634 0.5820112244759704 1.4879211444759695     C
C     0.48792114447596985 0.5820112244759696 0.8933625016116777     C
C     -0.047751201286025724 0.5237449751679599 1.4296548951679595     C
C     -0.41798877552403035 0.8933625016116773 1.0367051294363832     C
C     0.03670512943638145 1.48792114447597 0.5820112244759696     C
C     0.4296548951679595 1.0943513309501058 0.9522487987139753     C
C     -0.04775120128602595 0.4296548951679598 1.0943513309501063     C
C     -0.04775120128602572 1.0943513309501063 0.5237449751679599     C
C     0.4296548951679586 0.9522487987139745 0.5237449751679593     C
C     0.5820112244759699 0.4879211444759696 0.8933625016116777     C
C     0.5820112244759691 1.036705129436383 0.4879211444759693     C
C     0.03670512943638211 0.8933625016116777 0.48792114447597035     C
C     0.036705129436382836 0.5820112244759695 0.8933625016116774     C
C     0.4296548951679595 0.5237449751679594 1.0943513309501063     C
C     0.30881657000000007 0.9959518499999999 0.6992797300000001     C
C     -0.004048150000000316 1.3088165699999998 0.99595185     C
C     -0.30072027000000007 0.9959518499999999 1.30881657     C
C     -0.004048150000000316 0.6992797299999999 0.99595185     C
C     0.3088165700000002 0.9959518499999999 0.99595185     C
C     0.30881657000000007 0.6992797299999999 0.99595185     C
C     -0.004048150000000554 1.3088165699999998 0.6992797300000001     C
C     -0.00404815000000011 0.9959518499999999 0.6992797300000001     C
C     -0.00404815000000011 0.6992797299999999 1.30881657     C
C     -0.3007202700000002 1.3088165699999998 0.99595185     C
C     -0.3007202700000001 0.9959518499999999 0.99595185     C
C     -0.00404815000000011 0.9959518499999999 1.30881657     C
O     0.06730802999999999 0.06730802999999999 0.79807592     O
O     0.06730802999999999 0.06730802999999999 0.06730803     O
O     0.79807592 0.06730802999999999 0.06730803     O
O     0.06730802999999999 0.79807592 0.06730803     O
O     0.07472636999999994 0.7379187399999999 0.92010767     O
O     -0.26208126000000015 1.07472637 1.26724722     O
O     -0.07989232999999991 1.2672472199999998 1.07472637     O
O     0.26724722 0.92010767 0.73791874     O
O     0.07472637000000004 1.2672472199999998 0.73791874     O
O     0.07472637000000014 0.9201076699999998 1.26724722     O
O     0.2672472200000002 1.0747263699999998 0.92010767     O
O     -0.2620812599999995 1.2672472199999998 0.92010767     O
O     -0.26208126000000015 0.9201076699999998 1.07472637     O
O     -0.07989233000000054 1.07472637 0.73791874     O
O     -0.07989233000000019 0.7379187399999999 1.26724722     O
O     0.2672472200000001 0.7379187399999999 1.07472637     O
O     0.07472637000000003 0.7379187399999999 1.26724722     O
O     -0.2620812599999995 1.0747263699999998 0.92010767     O
O     -0.07989232999999984 1.2672472199999998 0.73791874     O
O     0.26724722 0.9201076699999998 1.07472637     O
O     0.07472637000000006 1.2672472199999998 0.92010767     O
O     0.07472636999999999 0.92010767 0.73791874     O
O     0.26724722 1.07472637 0.73791874     O
O     -0.26208126000000004 1.2672472199999998 1.07472637     O
O     -0.26208125999999965 0.9201076699999998 1.26724722     O
O     -0.07989232999999997 1.07472637 1.26724722     O
O     -0.07989233000000036 0.7379187399999999 1.07472637     O
O     0.26724721999999995 0.7379187399999999 0.92010767     O
O     0.9495820799999999 0.94958208 0.15125376     O
O     0.9495820800000001 0.9495820799999999 0.94958208     O
O     0.15125375999999985 0.9495820799999999 0.94958208     O
O     0.9495820799999999 0.15125375999999996 0.94958208     O
C     -0.09316168323553438 0.5426326676503428 1.2042895880313793     C
H     -0.12167461222275527 0.4742158226825603 1.2733190627817828     H
H     -0.028131645916700487 0.5469305787793484 1.2164592921972874     H
H     -0.1630915215090469 0.6206490397246611 1.2039822458990086     H
C     0.5426326676503402 0.9068383167644671 0.3462394275538117     C
H     0.4742158226825585 0.878325387777246 0.37413972675841123     H
H     0.5469305787793465 0.9718683540833014 0.26474177494006373     H
H     0.6206490397246591 0.836908478490955 0.3384602358853761     H
C     -0.09316168323553474 1.346239427553812 0.5426326676503418     C
H     -0.12167461222275557 1.3741397267584123 0.47421582268255935     H
H     -0.028131645916700268 1.2647417749400647 0.5469305787793478     H
H     -0.16309152150904654 1.3384602358853768 0.6206490397246603     H
C     -0.09316168323553402 1.2042895880313802 0.3462394275538126     C
H     -0.12167461222275504 1.2733190627817832 0.37413972675841267     H
H     -0.028131645916699533 1.2164592921972883 0.2647417749400642     H
H     -0.163091521509046 1.2039822458990093 0.33846023588537755     H
C     0.46820326349603847 0.7835765869581784 1.083623645953215     C
H     0.5360988388216492 0.714642766969372 1.1130834594631809     H
H     0.3898204407712018 0.7850017173717726 1.1531685972465402     H
H     0.4641822254967185 0.7703055322923915 1.0191412128748882     H
C     0.5426326676503413 0.34623942755381215 1.2042895880313798     C
H     0.4742158226825592 0.37413972675841195 1.273319062781783     H
H     0.5469305787793475 0.2647417749400645 1.2164592921972879     H
H     0.62064903972466 0.338460235885377 1.203982245899009     H
