data_I
_chemical_name_common  'CN/60/modified_CN_60'
_cell_length_a 14.67267
_cell_length_b 14.67267
_cell_length_c 14.67267
_cell_angle_alpha 60.00000
_cell_angle_beta  60.00000
_cell_angle_gamma 60.00000
_space_group_name_H-M_alt      'P 1'


loop_
_space_group_symop_operation_xyz
  'x, y, z' 

loop_
_atom_site_label
_atom_site_fract_x
_atom_site_fract_y
_atom_site_fract_z
_atom_site_type_symbol
Zr    0.11979582999999991 0.88020417 0.88020417    Zr
Zr    0.8802041699999997 0.11979582999999998 0.11979583    Zr
Zr    0.11979582999999996 0.11979583000000002 0.88020417    Zr
Zr    0.11979583000000003 0.8802041699999997 0.11979583    Zr
Zr    0.8802041699999997 0.11979583000000002 0.88020417    Zr
Zr    0.8802041699999998 0.8802041699999997 0.11979583    Zr
H     0.09439580999999993 0.71681257 0.09439581     H
H     0.7168125700000001 0.09439580999999998 0.09439581     H
H     0.09439580999999996 0.09439580999999998 0.09439581     H
H     0.09439580999999994 0.09439581 0.71681257     H
H     0.009535081512458073 0.3309248599144278 1.156235928658686     H
H     0.5094900350855721 0.831872898487542 0.6818693050855721     H
H     -0.49669587008557275 1.0095350815124582 1.1562359286586865     H
H     -0.16812710151245833 0.9767677613413138 0.6818693050855724     H
H     -0.16812710151245827 0.6818693050855723 1.5094900350855722     H
H     0.5094900350855723 0.6818693050855724 0.9767677613413137     H
H     0.15623592865868616 0.5033041299144277 1.3309248599144279     H
H     -0.31813069491442775 0.9767677613413138 0.8318728984875416     H
H     -0.16812710151245774 1.5094900350855718 0.681869305085572     H
H     0.33092485991442766 1.0095350815124582 1.1562359286586865     H
H     -0.023232238658686365 0.5094900350855722 0.8318728984875415     H
H     0.15623592865868635 1.0095350815124582 0.5033041299144277     H
H     0.33092485991442744 1.1562359286586867 0.5033041299144275     H
H     0.6818693050855721 0.5094900350855724 0.9767677613413134     H
H     0.681869305085572 0.831872898487542 0.5094900350855719     H
H     -0.16812710151245808 0.9767677613413142 0.5094900350855723     H
H     0.009535081512457709 0.5033041299144275 1.1562359286586867     H
H     0.3309248599144278 0.5033041299144279 1.0095350815124577     H
C     -0.006212760000000258 0.60055787 0.9937872400000001     C
C     -0.3994421300000001 0.9937872399999998 1.4118676500000003     C
C     -0.0062127600000004245 1.4118676500000003 0.9937872400000001     C
C     0.41186764999999936 0.99378724 0.60055787     C
C     -0.006212760000000525 1.41186765 0.60055787     C
C     -0.0062127600000000715 0.9937872399999998 1.4118676500000003     C
C     0.4118676499999999 0.99378724 0.9937872400000001     C
C     -0.39944212999999973 1.4118676500000003 0.9937872400000001     C
C     -0.39944213000000023 0.99378724 0.9937872400000001     C
C     -0.006212759999999998 0.99378724 0.60055787     C
C     -0.006212760000000127 0.6005578699999998 1.4118676500000003     C
C     0.4118676499999998 0.60055787 0.9937872400000001     C
C     -0.016228549225386867 0.6039370720839741 0.9024444850574381     C
C     0.5030169679160252 1.0857655092253873 0.40892688791602566     C
C     0.002290634942561404 0.4089268879160257 1.0857655092253868     C
C     0.5098469920839737 0.9024444850574386 0.6039370720839744     C
C     0.08576550922538709 1.4089268879160253 0.5030169679160253     C
C     0.08576550922538702 1.0022906349425618 0.40892688791602577     C
C     0.5098469920839742 0.9837714507746129 0.9024444850574388     C
C     0.5030169679160259 0.40892688791602566 1.0022906349425613     C
C     -0.49698303208397443 1.0022906349425609 1.0857655092253877     C
C     -0.09755551494256148 0.9837714507746128 0.6039370720839744     C
C     -0.097555514942562 0.6039370720839745 1.509846992083974     C
C     0.5098469920839744 0.6039370720839741 0.9837714507746126     C
C     0.08576550922538699 0.5030169679160258 1.4089268879160255     C
C     -0.39606292791602593 0.9837714507746129 0.9024444850574388     C
C     -0.0975555149425614 1.5098469920839739 0.603937072083974     C
C     0.40892688791602577 1.0022906349425609 1.0857655092253877     C
C     -0.016228549225386923 0.5098469920839743 0.9024444850574381     C
C     0.08576550922538688 1.0022906349425615 0.5030169679160258     C
C     0.40892688791602533 1.0857655092253873 0.5030169679160256     C
C     0.6039370720839745 0.5098469920839743 0.9837714507746126     C
C     0.603937072083974 0.9024444850574388 0.5098469920839741     C
C     -0.09755551494256151 0.9837714507746134 0.5098469920839743     C
C     0.002290634942561194 0.5030169679160253 1.0857655092253873     C
C     0.40892688791602577 0.5030169679160258 1.002290634942561     C
C     0.30881657000000007 0.9959518499999999 0.6992797300000001     C
C     -0.004048150000000316 1.3088165699999998 0.99595185     C
C     -0.30072027000000007 0.9959518499999999 1.30881657     C
C     -0.004048150000000316 0.6992797299999999 0.99595185     C
C     0.3088165700000002 0.9959518499999999 0.99595185     C
C     0.30881657000000007 0.6992797299999999 0.99595185     C
C     -0.004048150000000554 1.3088165699999998 0.6992797300000001     C
C     -0.00404815000000011 0.9959518499999999 0.6992797300000001     C
C     -0.00404815000000011 0.6992797299999999 1.30881657     C
C     -0.3007202700000002 1.3088165699999998 0.99595185     C
C     -0.3007202700000001 0.9959518499999999 0.99595185     C
C     -0.00404815000000011 0.9959518499999999 1.30881657     C
O     0.06730802999999999 0.06730802999999999 0.79807592     O
O     0.06730802999999999 0.06730802999999999 0.06730803     O
O     0.79807592 0.06730802999999999 0.06730803     O
O     0.06730802999999999 0.79807592 0.06730803     O
O     0.07472636999999994 0.7379187399999999 0.92010767     O
O     -0.26208126000000015 1.07472637 1.26724722     O
O     -0.07989232999999991 1.2672472199999998 1.07472637     O
O     0.26724722 0.92010767 0.73791874     O
O     0.07472637000000004 1.2672472199999998 0.73791874     O
O     0.07472637000000014 0.9201076699999998 1.26724722     O
O     0.2672472200000002 1.0747263699999998 0.92010767     O
O     -0.2620812599999995 1.2672472199999998 0.92010767     O
O     -0.26208126000000015 0.9201076699999998 1.07472637     O
O     -0.07989233000000054 1.07472637 0.73791874     O
O     -0.07989233000000019 0.7379187399999999 1.26724722     O
O     0.2672472200000001 0.7379187399999999 1.07472637     O
O     0.07472637000000003 0.7379187399999999 1.26724722     O
O     -0.2620812599999995 1.0747263699999998 0.92010767     O
O     -0.07989232999999984 1.2672472199999998 0.73791874     O
O     0.26724722 0.9201076699999998 1.07472637     O
O     0.07472637000000006 1.2672472199999998 0.92010767     O
O     0.07472636999999999 0.92010767 0.73791874     O
O     0.26724722 1.07472637 0.73791874     O
O     -0.26208126000000004 1.2672472199999998 1.07472637     O
O     -0.26208125999999965 0.9201076699999998 1.26724722     O
O     -0.07989232999999997 1.07472637 1.26724722     O
O     -0.07989233000000036 0.7379187399999999 1.07472637     O
O     0.26724721999999995 0.7379187399999999 0.92010767     O
O     0.9495820799999999 0.94958208 0.15125376     O
O     0.9495820800000001 0.9495820799999999 0.94958208     O
O     0.15125375999999985 0.9495820799999999 0.94958208     O
O     0.9495820799999999 0.15125375999999996 0.94958208     O
C     -0.02660168341585173 0.7048838791456298 0.8078427883739361     C
N     -0.035029854945603935 0.7869031598832249 0.7309789098185904     N
C     0.49944302683769726 1.1810253941741742 0.3084341635883533     C
N     0.49653919971155563 1.2584240506950628 0.22678382507212003     N
C     0.1810253941741736 1.308434163588353 0.49944302683769687     C
N     0.25842405069506214 1.2267838250721195 0.4965391997115554     N
C     0.1810253941741735 1.011097415399776 0.3084341635883536     C
N     0.25842405069506236 1.0182529245212626 0.2267838250721203     N
C     0.513875015896286 0.9733983165841474 0.8078427883739366     C
N     0.5171477852437893 0.9649701450543942 0.7309789098185913     N
C     0.49944302683769703 0.3084341635883536 1.0110974153997756     C
N     0.49653919971155497 0.22678382507212028 1.018252924521262     N
