data_I
_chemical_name_common  'SH/90/modified_SH_90'
_cell_length_a 14.67267
_cell_length_b 14.67267
_cell_length_c 14.67267
_cell_angle_alpha 60.00000
_cell_angle_beta  60.00000
_cell_angle_gamma 60.00000
_space_group_name_H-M_alt      'P 1'


loop_
_space_group_symop_operation_xyz
  'x, y, z' 

loop_
_atom_site_label
_atom_site_fract_x
_atom_site_fract_y
_atom_site_fract_z
_atom_site_type_symbol
Zr    0.11979582999999991 0.88020417 0.88020417    Zr
Zr    0.8802041699999997 0.11979582999999998 0.11979583    Zr
Zr    0.11979582999999996 0.11979583000000002 0.88020417    Zr
Zr    0.11979583000000003 0.8802041699999997 0.11979583    Zr
Zr    0.8802041699999997 0.11979583000000002 0.88020417    Zr
Zr    0.8802041699999998 0.8802041699999997 0.11979583    Zr
H     0.09439580999999993 0.71681257 0.09439581     H
H     0.7168125700000001 0.09439580999999998 0.09439581     H
H     0.09439580999999996 0.09439580999999998 0.09439581     H
H     0.09439580999999994 0.09439581 0.71681257     H
H     0.0963605491942518 0.3169284730470473 1.0974032347116538     H
H     0.5231177769529526 0.8912139308057484 0.6954970469529527     H
H     -0.5106922569529534 1.0963605491942519 1.0974032347116542     H
H     -0.10878606919425234 0.8901712452883462 0.6954970469529532     H
H     -0.1087860691942517 0.6954970469529531 1.5231177769529525     H
H     0.5231177769529528 0.6954970469529528 0.8901712452883463     H
H     0.09740323471165434 0.48930774304704694 1.3169284730470465     H
H     -0.30450295304704705 0.8901712452883458 0.8912139308057482     H
H     -0.1087860691942521 1.523117776952953 0.6954970469529523     H
H     0.316928473047047 1.0963605491942519 1.0974032347116542     H
H     -0.10982875471165414 0.523117776952953 0.891213930805748     H
H     0.09740323471165394 1.0963605491942519 0.48930774304704716     H
H     0.3169284730470466 1.0974032347116545 0.4893077430470468     H
H     0.6954970469529532 0.5231177769529527 0.890171245288346     H
H     0.6954970469529524 0.8912139308057483 0.5231177769529527     H
H     -0.10878606919425242 0.8901712452883466 0.5231177769529531     H
H     0.09636054919425172 0.48930774304704683 1.0974032347116545     H
H     0.3169284730470466 0.4893077430470469 1.0963605491942523     H
C     -0.006212760000000258 0.60055787 0.9937872400000001     C
C     -0.3994421300000001 0.9937872399999998 1.4118676500000003     C
C     -0.0062127600000004245 1.4118676500000003 0.9937872400000001     C
C     0.41186764999999936 0.99378724 0.60055787     C
C     -0.006212760000000525 1.41186765 0.60055787     C
C     -0.0062127600000000715 0.9937872399999998 1.4118676500000003     C
C     0.4118676499999999 0.99378724 0.9937872400000001     C
C     -0.39944212999999973 1.4118676500000003 0.9937872400000001     C
C     -0.39944213000000023 0.99378724 0.9937872400000001     C
C     -0.006212759999999998 0.99378724 0.60055787     C
C     -0.006212760000000127 0.6005578699999998 1.4118676500000003     C
C     0.4118676499999998 0.60055787 0.9937872400000001     C
C     -0.06509905710229703 0.6115240493080103 0.9361410384862765     C
C     0.49499155069198925 1.0526735371022973 0.4009014706919895     C
C     0.051433441513723005 0.40090147069199 1.052673537102297     C
C     0.5174339693080098 0.9361410384862765 0.6115240493080102     C
C     0.052673537102296754 1.4009014706919896 0.49499155069198947     C
C     0.05267353710229683 1.0514334415137236 0.4009014706919901     C
C     0.5174339693080102 0.9349009428977028 0.9361410384862768     C
C     0.49499155069198963 0.40090147069198934 1.0514334415137239     C
C     -0.5050084493080104 1.0514334415137228 1.0526735371022975     C
C     -0.06385896151372326 0.9349009428977029 0.6115240493080104     C
C     -0.06385896151372399 0.6115240493080105 1.5174339693080103     C
C     0.5174339693080103 0.6115240493080095 0.9349009428977034     C
C     0.052673537102296844 0.49499155069198997 1.4009014706919896     C
C     -0.38847595069198987 0.9349009428977028 0.9361410384862768     C
C     -0.0638589615137236 1.5174339693080099 0.6115240493080096     C
C     0.40090147069198984 1.0514334415137228 1.0526735371022975     C
C     -0.06509905710229712 0.5174339693080102 0.9361410384862765     C
C     0.05267353710229681 1.0514334415137236 0.4949915506919902     C
C     0.40090147069198934 1.0526735371022973 0.49499155069198975     C
C     0.61152404930801 0.5174339693080097 0.9349009428977034     C
C     0.6115240493080097 0.936141038486277 0.5174339693080097     C
C     -0.06385896151372367 0.9349009428977033 0.5174339693080106     C
C     0.0514334415137229 0.4949915506919897 1.0526735371022973     C
C     0.4009014706919896 0.49499155069198947 1.0514334415137236     C
C     0.30881657000000007 0.9959518499999999 0.6992797300000001     C
C     -0.004048150000000316 1.3088165699999998 0.99595185     C
C     -0.30072027000000007 0.9959518499999999 1.30881657     C
C     -0.004048150000000316 0.6992797299999999 0.99595185     C
C     0.3088165700000002 0.9959518499999999 0.99595185     C
C     0.30881657000000007 0.6992797299999999 0.99595185     C
C     -0.004048150000000554 1.3088165699999998 0.6992797300000001     C
C     -0.00404815000000011 0.9959518499999999 0.6992797300000001     C
C     -0.00404815000000011 0.6992797299999999 1.30881657     C
C     -0.3007202700000002 1.3088165699999998 0.99595185     C
C     -0.3007202700000001 0.9959518499999999 0.99595185     C
C     -0.00404815000000011 0.9959518499999999 1.30881657     C
O     0.06730802999999999 0.06730802999999999 0.79807592     O
O     0.06730802999999999 0.06730802999999999 0.06730803     O
O     0.79807592 0.06730802999999999 0.06730803     O
O     0.06730802999999999 0.79807592 0.06730803     O
O     0.07472636999999994 0.7379187399999999 0.92010767     O
O     -0.26208126000000015 1.07472637 1.26724722     O
O     -0.07989232999999991 1.2672472199999998 1.07472637     O
O     0.26724722 0.92010767 0.73791874     O
O     0.07472637000000004 1.2672472199999998 0.73791874     O
O     0.07472637000000014 0.9201076699999998 1.26724722     O
O     0.2672472200000002 1.0747263699999998 0.92010767     O
O     -0.2620812599999995 1.2672472199999998 0.92010767     O
O     -0.26208126000000015 0.9201076699999998 1.07472637     O
O     -0.07989233000000054 1.07472637 0.73791874     O
O     -0.07989233000000019 0.7379187399999999 1.26724722     O
O     0.2672472200000001 0.7379187399999999 1.07472637     O
O     0.07472637000000003 0.7379187399999999 1.26724722     O
O     -0.2620812599999995 1.0747263699999998 0.92010767     O
O     -0.07989232999999984 1.2672472199999998 0.73791874     O
O     0.26724722 0.9201076699999998 1.07472637     O
O     0.07472637000000006 1.2672472199999998 0.92010767     O
O     0.07472636999999999 0.92010767 0.73791874     O
O     0.26724722 1.07472637 0.73791874     O
O     -0.26208126000000004 1.2672472199999998 1.07472637     O
O     -0.26208125999999965 0.9201076699999998 1.26724722     O
O     -0.07989232999999997 1.07472637 1.26724722     O
O     -0.07989233000000036 0.7379187399999999 1.07472637     O
O     0.26724721999999995 0.7379187399999999 0.92010767     O
O     0.9495820799999999 0.94958208 0.15125376     O
O     0.9495820800000001 0.9495820799999999 0.94958208     O
O     0.15125375999999985 0.9495820799999999 0.94958208     O
O     0.9495820799999999 0.15125375999999996 0.94958208     O
S     -0.14218016731365352 0.7490408146778239 0.860683191231483     S
H     -0.18377028052551078 0.7198134017609774 0.8199689306111504     H
S     0.4799693585956527 1.1297546473136548 0.2633847053221764     S
H     0.3684375718466166 1.171344760525512 0.2926121182390226     H
S     0.12975464731365402 1.2633847053221767 0.47996935859565215     S
H     0.1713447605255105 1.2926121182390231 0.3684375718466166     H
S     0.12975464731365396 1.1268912887685163 0.2633847053221774     S
H     0.1713447605255112 1.1676055493888489 0.2926121182390237     H
S     0.5324561614043472 0.8578198326863453 0.8606831912314847     S
H     0.6439879481533831 0.8162297194744882 0.8199689306111516     H
S     0.4799693585956524 0.26338470532217695 1.1268912887685165     S
H     0.36843757184661613 0.29261211823902306 1.1676055493888498     H
