data_I
_chemical_name_common  'COOH/120/modified_COOH_120'
_cell_length_a 14.67267
_cell_length_b 14.67267
_cell_length_c 14.67267
_cell_angle_alpha 60.00000
_cell_angle_beta  60.00000
_cell_angle_gamma 60.00000
_space_group_name_H-M_alt      'P 1'


loop_
_space_group_symop_operation_xyz
  'x, y, z' 

loop_
_atom_site_label
_atom_site_fract_x
_atom_site_fract_y
_atom_site_fract_z
_atom_site_type_symbol
Zr    0.11979582999999991 0.88020417 0.88020417    Zr
Zr    0.8802041699999997 0.11979582999999998 0.11979583    Zr
Zr    0.11979582999999996 0.11979583000000002 0.88020417    Zr
Zr    0.11979583000000003 0.8802041699999997 0.11979583    Zr
Zr    0.8802041699999997 0.11979583000000002 0.88020417    Zr
Zr    0.8802041699999998 0.8802041699999997 0.11979583    Zr
H     0.09439580999999993 0.71681257 0.09439581     H
H     0.7168125700000001 0.09439580999999998 0.09439581     H
H     0.09439580999999996 0.09439580999999998 0.09439581     H
H     0.09439580999999994 0.09439581 0.71681257     H
H     -0.021960601512458645 0.5091213900855721 0.831338551341314     H
H     0.5091213900855717 0.9780393984875421 0.6815006600855719     H
H     -0.49706451508557276 1.155701581512458 1.0108067186586867     H
H     -0.02196060151245878 0.831338551341314 0.6815006600855728     H
H     -0.021960601512458038 0.6815006600855723 1.509121390085572     H
H     0.5091213900855722 0.6815006600855722 0.8313385513413137     H
H     0.010806718658686463 0.5029354849144274 1.3305562149144279     H
H     -0.31849933991442775 0.8313385513413134 0.978039398487542     H
H     -0.021960601512458724 1.509121390085572 0.6815006600855721     H
H     0.3305562149144277 1.155701581512458 1.0108067186586867     H
H     0.010806718658686175 0.33055621491442755 1.1557015815124585     H
H     0.010806718658686225 1.155701581512458 0.502935484914428     H
H     0.33055621491442677 1.0108067186586869 0.5029354849144272     H
H     0.6815006600855724 0.509121390085572 0.8313385513413134     H
H     0.6815006600855712 0.9780393984875422 0.509121390085572     H
H     -0.021960601512458634 0.8313385513413143 0.5091213900855727     H
H     -0.021960601512458162 0.681500660085572 0.8313385513413135     H
H     0.33055621491442777 0.5029354849144276 1.155701581512458     H
C     -0.006212760000000258 0.60055787 0.9937872400000001     C
C     -0.3994421300000001 0.9937872399999998 1.4118676500000003     C
C     -0.0062127600000004245 1.4118676500000003 0.9937872400000001     C
C     0.41186764999999936 0.99378724 0.60055787     C
C     -0.006212760000000525 1.41186765 0.60055787     C
C     -0.0062127600000000715 0.9937872399999998 1.4118676500000003     C
C     0.4118676499999999 0.99378724 0.9937872400000001     C
C     -0.39944212999999973 1.4118676500000003 0.9937872400000001     C
C     -0.39944213000000023 0.99378724 0.9937872400000001     C
C     -0.006212759999999998 0.99378724 0.60055787     C
C     -0.006212760000000127 0.6005578699999998 1.4118676500000003     C
C     0.4118676499999998 0.60055787 0.9937872400000001     C
C     0.0038030292253867343 0.5025785279160255 1.0851299949425617     C
C     0.5025785279160249 1.0038030292253874 0.4084884479160257     C
C     -0.014716154942561753 0.509408552083974 0.9018089707746132     C
C     0.5094085520839735 0.9852838450574386 0.6034986320839744     C
C     0.0038030292253862924 1.4084884479160253 0.5025785279160259     C
C     0.0038030292253866047 1.0851299949425617 0.4084884479160261     C
C     0.5094085520839743 0.9018089707746126 0.9852838450574389     C
C     0.5025785279160262 0.40848844791602557 1.0851299949425612     C
C     -0.49742147208397475 1.0851299949425612 1.0038030292253879     C
C     -0.014716154942561444 0.9018089707746126 0.6034986320839744     C
C     -0.014716154942561795 0.6034986320839748 1.5094085520839744     C
C     0.509408552083975 0.6034986320839737 0.9018089707746126     C
C     0.0038030292253868735 0.5025785279160259 1.4084884479160258     C
C     -0.39650136791602586 0.9018089707746126 0.9852838450574389     C
C     -0.014716154942562499 1.509408552083974 0.6034986320839744     C
C     0.40848844791602545 1.0851299949425612 1.0038030292253879     C
C     0.0038030292253868948 0.40848844791602545 1.0851299949425617     C
C     0.0038030292253867486 1.0851299949425615 0.5025785279160262     C
C     0.4084884479160248 1.0038030292253879 0.5025785279160253     C
C     0.6034986320839746 0.509408552083974 0.9018089707746126     C
C     0.6034986320839734 0.9852838450574389 0.5094085520839738     C
C     -0.014716154942562181 0.9018089707746135 0.5094085520839747     C
C     -0.014716154942561377 0.6034986320839736 0.9018089707746129     C
C     0.408488447916026 0.5025785279160256 1.0851299949425612     C
C     0.30881657000000007 0.9959518499999999 0.6992797300000001     C
C     -0.004048150000000316 1.3088165699999998 0.99595185     C
C     -0.30072027000000007 0.9959518499999999 1.30881657     C
C     -0.004048150000000316 0.6992797299999999 0.99595185     C
C     0.3088165700000002 0.9959518499999999 0.99595185     C
C     0.30881657000000007 0.6992797299999999 0.99595185     C
C     -0.004048150000000554 1.3088165699999998 0.6992797300000001     C
C     -0.00404815000000011 0.9959518499999999 0.6992797300000001     C
C     -0.00404815000000011 0.6992797299999999 1.30881657     C
C     -0.3007202700000002 1.3088165699999998 0.99595185     C
C     -0.3007202700000001 0.9959518499999999 0.99595185     C
C     -0.00404815000000011 0.9959518499999999 1.30881657     C
O     0.06730802999999999 0.06730802999999999 0.79807592     O
O     0.06730802999999999 0.06730802999999999 0.06730803     O
O     0.79807592 0.06730802999999999 0.06730803     O
O     0.06730802999999999 0.79807592 0.06730803     O
O     0.07472636999999994 0.7379187399999999 0.92010767     O
O     -0.26208126000000015 1.07472637 1.26724722     O
O     -0.07989232999999991 1.2672472199999998 1.07472637     O
O     0.26724722 0.92010767 0.73791874     O
O     0.07472637000000004 1.2672472199999998 0.73791874     O
O     0.07472637000000014 0.9201076699999998 1.26724722     O
O     0.2672472200000002 1.0747263699999998 0.92010767     O
O     -0.2620812599999995 1.2672472199999998 0.92010767     O
O     -0.26208126000000015 0.9201076699999998 1.07472637     O
O     -0.07989233000000054 1.07472637 0.73791874     O
O     -0.07989233000000019 0.7379187399999999 1.26724722     O
O     0.2672472200000001 0.7379187399999999 1.07472637     O
O     0.07472637000000003 0.7379187399999999 1.26724722     O
O     -0.2620812599999995 1.0747263699999998 0.92010767     O
O     -0.07989232999999984 1.2672472199999998 0.73791874     O
O     0.26724722 0.9201076699999998 1.07472637     O
O     0.07472637000000006 1.2672472199999998 0.92010767     O
O     0.07472636999999999 0.92010767 0.73791874     O
O     0.26724722 1.07472637 0.73791874     O
O     -0.26208126000000004 1.2672472199999998 1.07472637     O
O     -0.26208125999999965 0.9201076699999998 1.26724722     O
O     -0.07989232999999997 1.07472637 1.26724722     O
O     -0.07989233000000036 0.7379187399999999 1.07472637     O
O     0.26724721999999995 0.7379187399999999 0.92010767     O
O     0.9495820799999999 0.94958208 0.15125376     O
O     0.9495820800000001 0.9495820799999999 0.94958208     O
O     0.15125375999999985 0.9495820799999999 0.94958208     O
O     0.9495820799999999 0.15125375999999996 0.94958208     O
C     0.01453634168635326 0.49841064216578695 1.183016472760908     C
O     0.023686598979771302 0.41223195441160804 1.266465683882039     O
O     0.015062266576731122 0.5808319416964116 1.1878128425026084     O
H     0.030890164389815768 0.40943471565305883 1.3321613065789157     H
C     0.49841064216578546 1.0145363416863555 0.3040365433869506     C
O     0.41223195441160637 1.0236865989797737 0.297615762726581     O
O     0.5808319416964106 1.0150622665767324 0.21629294922424802     O
H     0.40943471565305684 1.0308901643898192 0.22751381337820917     H
C     0.014536341686353428 1.3040365433869519 0.49841064216578684     C
O     0.023686598979771437 1.2976157627265819 0.4122319544116078     O
O     0.015062266576730196 1.2162929492242487 0.5808319416964122     O
H     0.030890164389816566 1.2275138133782098 0.40943471565305817     H
C     0.014536341686353638 1.183016472760908 0.3040365433869522     C
O     0.023686598979771913 1.2664656838820385 0.29761576272658263     O
O     0.015062266576731157 1.1878128425026084 0.2162929492242489     O
H     0.03089016438981731 1.332161306578915 0.2275138133782108     H
C     0.5131065883386333 0.8032414509317711 0.9761712736121272     C
O     0.5988847246517376 0.7192116446053463 0.9684027144061523     O
O     0.43066226650754263 0.798411710601692 0.9757247639110583     O
H     0.6013666281783545 0.6530589467242445 0.9622868946441983     H
C     0.4984106421657863 0.3040365433869518 1.1830164727609076     C
O     0.41223195441160754 0.29761576272658186 1.2664656838820383     O
O     0.5808319416964121 0.21629294922424874 1.187812842502608     O
H     0.4094347156530572 0.22751381337821 1.3321613065789153     H
