data_I
_chemical_name_common  'COOH/0/modified_COOH_0'
_cell_length_a 14.67267
_cell_length_b 14.67267
_cell_length_c 14.67267
_cell_angle_alpha 60.00000
_cell_angle_beta  60.00000
_cell_angle_gamma 60.00000
_space_group_name_H-M_alt      'P 1'


loop_
_space_group_symop_operation_xyz
  'x, y, z' 

loop_
_atom_site_label
_atom_site_fract_x
_atom_site_fract_y
_atom_site_fract_z
_atom_site_type_symbol
Zr    0.11979582999999991 0.88020417 0.88020417    Zr
Zr    0.8802041699999997 0.11979582999999998 0.11979583    Zr
Zr    0.11979582999999996 0.11979583000000002 0.88020417    Zr
Zr    0.11979583000000003 0.8802041699999997 0.11979583    Zr
Zr    0.8802041699999997 0.11979583000000002 0.88020417    Zr
Zr    0.8802041699999998 0.8802041699999997 0.11979583    Zr
H     0.09439580999999993 0.71681257 0.09439581     H
H     0.7168125700000001 0.09439580999999998 0.09439581     H
H     0.09439580999999996 0.09439580999999998 0.09439581     H
H     0.09439580999999994 0.09439581 0.71681257     H
H     -0.15237926 0.42039176999999994 1.1392164500000002     H
H     0.42039177 0.8476207399999999 0.59277104     H
H     -0.40722896000000036 0.8476207399999999 1.1392164500000002     H
H     -0.15237926000000007 1.13921645 0.5927710400000002     H
H     -0.15237925999999996 0.5927710400000004 1.4203917699999997     H
H     0.42039176999999983 0.59277104 1.1392164500000002     H
H     0.13921644999999983 0.5927710400000004 1.4203917699999997     H
H     -0.4072289600000001 1.13921645 0.84762074     H
H     -0.1523792599999998 1.4203917700000002 0.59277104     H
H     0.42039177000000005 0.8476207399999999 1.1392164500000002     H
H     0.1392164499999999 0.42039177 0.84762074     H
H     0.13921644999999955 0.8476207400000001 0.5927710400000002     H
H     0.42039177000000016 1.13921645 0.5927710400000001     H
H     0.5927710399999998 0.42039177000000005 1.1392164500000002     H
H     0.5927710399999998 0.84762074 0.4203917700000001     H
H     -0.15237925999999982 1.1392164500000002 0.42039177000000016     H
H     -0.15237926000000046 0.5927710399999999 1.1392164500000002     H
H     0.4203917699999998 0.5927710400000001 0.84762074     H
C     -0.006212760000000258 0.60055787 0.9937872400000001     C
C     -0.3994421300000001 0.9937872399999998 1.4118676500000003     C
C     -0.0062127600000004245 1.4118676500000003 0.9937872400000001     C
C     0.41186764999999936 0.99378724 0.60055787     C
C     -0.006212760000000525 1.41186765 0.60055787     C
C     -0.0062127600000000715 0.9937872399999998 1.4118676500000003     C
C     0.4118676499999999 0.99378724 0.9937872400000001     C
C     -0.39944212999999973 1.4118676500000003 0.9937872400000001     C
C     -0.39944213000000023 0.99378724 0.9937872400000001     C
C     -0.006212759999999998 0.99378724 0.60055787     C
C     -0.006212760000000127 0.6005578699999998 1.4118676500000003     C
C     0.4118676499999998 0.60055787 0.9937872400000001     C
C     0.07574972000000003 0.55369624 0.91094788     C
C     0.5536962399999997 1.07574972 0.45960616000000004     C
C     -0.08905212 0.45960615999999993 1.07574972     C
C     0.4596061599999995 0.9109478799999999 0.5536962400000001     C
C     0.07574972000000015 1.4596061599999997 0.55369624     C
C     0.07574971999999991 0.9109478800000002 0.45960616000000015     C
C     0.45960616000000004 1.07574972 0.91094788     C
C     0.55369624 0.45960615999999993 0.91094788     C
C     -0.44630376 0.9109478799999997 1.07574972     C
C     -0.0890521200000003 1.07574972 0.5536962400000002     C
C     -0.08905212000000001 0.5536962400000002 1.4596061599999994     C
C     0.45960616000000026 0.55369624 1.07574972     C
C     0.07574972000000019 0.5536962400000002 1.4596061599999994     C
C     -0.4463037600000001 1.07574972 0.91094788     C
C     -0.08905211999999964 1.4596061599999997 0.55369624     C
C     0.45960616000000026 0.9109478799999997 1.07574972     C
C     0.07574971999999998 0.4596061599999998 0.91094788     C
C     0.07574971999999983 0.9109478800000002 0.5536962400000002     C
C     0.45960616000000004 1.0757497199999997 0.5536962400000001     C
C     0.55369624 0.45960616000000004 1.07574972     C
C     0.5536962400000001 0.9109478799999999 0.45960616000000004     C
C     -0.08905211999999979 1.0757497200000001 0.45960616000000015     C
C     -0.08905212000000028 0.5536962399999998 1.07574972     C
C     0.45960615999999993 0.5536962400000001 0.91094788     C
C     0.30881657000000007 0.9959518499999999 0.6992797300000001     C
C     -0.004048150000000316 1.3088165699999998 0.99595185     C
C     -0.30072027000000007 0.9959518499999999 1.30881657     C
C     -0.004048150000000316 0.6992797299999999 0.99595185     C
C     0.3088165700000002 0.9959518499999999 0.99595185     C
C     0.30881657000000007 0.6992797299999999 0.99595185     C
C     -0.004048150000000554 1.3088165699999998 0.6992797300000001     C
C     -0.00404815000000011 0.9959518499999999 0.6992797300000001     C
C     -0.00404815000000011 0.6992797299999999 1.30881657     C
C     -0.3007202700000002 1.3088165699999998 0.99595185     C
C     -0.3007202700000001 0.9959518499999999 0.99595185     C
C     -0.00404815000000011 0.9959518499999999 1.30881657     C
O     0.06730802999999999 0.06730802999999999 0.79807592     O
O     0.06730802999999999 0.06730802999999999 0.06730803     O
O     0.79807592 0.06730802999999999 0.06730803     O
O     0.06730802999999999 0.79807592 0.06730803     O
O     0.07472636999999994 0.7379187399999999 0.92010767     O
O     -0.26208126000000015 1.07472637 1.26724722     O
O     -0.07989232999999991 1.2672472199999998 1.07472637     O
O     0.26724722 0.92010767 0.73791874     O
O     0.07472637000000004 1.2672472199999998 0.73791874     O
O     0.07472637000000014 0.9201076699999998 1.26724722     O
O     0.2672472200000002 1.0747263699999998 0.92010767     O
O     -0.2620812599999995 1.2672472199999998 0.92010767     O
O     -0.26208126000000015 0.9201076699999998 1.07472637     O
O     -0.07989233000000054 1.07472637 0.73791874     O
O     -0.07989233000000019 0.7379187399999999 1.26724722     O
O     0.2672472200000001 0.7379187399999999 1.07472637     O
O     0.07472637000000003 0.7379187399999999 1.26724722     O
O     -0.2620812599999995 1.0747263699999998 0.92010767     O
O     -0.07989232999999984 1.2672472199999998 0.73791874     O
O     0.26724722 0.9201076699999998 1.07472637     O
O     0.07472637000000006 1.2672472199999998 0.92010767     O
O     0.07472636999999999 0.92010767 0.73791874     O
O     0.26724722 1.07472637 0.73791874     O
O     -0.26208126000000004 1.2672472199999998 1.07472637     O
O     -0.26208125999999965 0.9201076699999998 1.26724722     O
O     -0.07989232999999997 1.07472637 1.26724722     O
O     -0.07989233000000036 0.7379187399999999 1.07472637     O
O     0.26724721999999995 0.7379187399999999 0.92010767     O
O     0.9495820799999999 0.94958208 0.15125376     O
O     0.9495820800000001 0.9495820799999999 0.94958208     O
O     0.15125375999999985 0.9495820799999999 0.94958208     O
O     0.9495820799999999 0.15125375999999996 0.94958208     O
C     0.16358392738187444 0.6043080988849974 0.8221739736269662     C
O     0.2384634764148814 0.5648296967791672 0.7464933217118107     O
O     0.16788774282157634 0.6894135680321264 0.8178241135863342     O
H     0.2974126088859382 0.5987973873060113 0.6869135187768887     H
C     0.6043080988849979 1.163583927381874 0.4099340001061628     C
O     0.5648296967791676 1.2384634764148805 0.4502135050941417     O
O     0.6894135680321265 1.1678877428215764 0.32487457555996335     O
H     0.5987973873060118 1.2974126088859366 0.4168764850311637     H
C     0.16358392738187386 1.4099340001061627 0.6043080988849974     C
O     0.23846347641488116 1.4502135050941414 0.5648296967791671     O
O     0.16788774282157642 1.3248745755599627 0.6894135680321257     O
H     0.29741260888593746 1.4168764850311633 0.598797387306011     H
C     0.16358392738187416 0.8221739736269659 0.409934000106163     C
O     0.23846347641488086 0.7464933217118104 0.45021350509414215     O
O     0.16788774282157629 0.8178241135863342 0.3248745755599633     O
H     0.2974126088859373 0.686913518776888 0.41687648503116415     H
C     0.40993400010616277 1.1635839273818738 0.8221739736269655     C
O     0.4502135050941416 1.2384634764148805 0.7464933217118102     O
O     0.32487457555996263 1.1678877428215761 0.8178241135863342     O
H     0.4168764850311636 1.2974126088859368 0.6869135187768876     H
C     0.6043080988849969 0.4099340001061628 0.8221739736269658     C
O     0.5648296967791666 0.4502135050941416 0.7464933217118105     O
O     0.6894135680321258 0.3248745755599629 0.8178241135863346     O
H     0.5987973873060104 0.41687648503116365 0.686913518776888     H
