data_I
_chemical_name_common  'CN/120/modified_CN_120'
_cell_length_a 14.67267
_cell_length_b 14.67267
_cell_length_c 14.67267
_cell_angle_alpha 60.00000
_cell_angle_beta  60.00000
_cell_angle_gamma 60.00000
_space_group_name_H-M_alt      'P 1'


loop_
_space_group_symop_operation_xyz
  'x, y, z' 

loop_
_atom_site_label
_atom_site_fract_x
_atom_site_fract_y
_atom_site_fract_z
_atom_site_type_symbol
Zr    0.11979582999999991 0.88020417 0.88020417    Zr
Zr    0.8802041699999997 0.11979582999999998 0.11979583    Zr
Zr    0.11979582999999996 0.11979583000000002 0.88020417    Zr
Zr    0.11979583000000003 0.8802041699999997 0.11979583    Zr
Zr    0.8802041699999997 0.11979583000000002 0.88020417    Zr
Zr    0.8802041699999998 0.8802041699999997 0.11979583    Zr
H     0.09439580999999993 0.71681257 0.09439581     H
H     0.7168125700000001 0.09439580999999998 0.09439581     H
H     0.09439580999999996 0.09439580999999998 0.09439581     H
H     0.09439580999999994 0.09439581 0.71681257     H
H     0.15570158151245744 0.33055621491442805 1.0108067186586864     H
H     0.5091213900855717 0.9780393984875421 0.6815006600855719     H
H     -0.49706451508557276 1.155701581512458 1.0108067186586867     H
H     -0.02196060151245878 0.831338551341314 0.6815006600855728     H
H     -0.021960601512458038 0.6815006600855723 1.509121390085572     H
H     0.5091213900855722 0.6815006600855722 0.8313385513413137     H
H     0.010806718658686463 0.5029354849144274 1.3305562149144279     H
H     -0.31849933991442775 0.8313385513413134 0.978039398487542     H
H     -0.021960601512458724 1.509121390085572 0.6815006600855721     H
H     0.3305562149144277 1.155701581512458 1.0108067186586867     H
H     -0.16866144865868693 0.5091213900855724 0.978039398487542     H
H     0.010806718658686225 1.155701581512458 0.502935484914428     H
H     0.33055621491442677 1.0108067186586869 0.5029354849144272     H
H     0.6815006600855724 0.509121390085572 0.8313385513413134     H
H     0.6815006600855712 0.9780393984875422 0.509121390085572     H
H     -0.021960601512458634 0.8313385513413143 0.5091213900855727     H
H     0.1557015815124576 0.5029354849144273 1.0108067186586869     H
H     0.33055621491442777 0.5029354849144276 1.155701581512458     H
C     -0.006212760000000258 0.60055787 0.9937872400000001     C
C     -0.3994421300000001 0.9937872399999998 1.4118676500000003     C
C     -0.0062127600000004245 1.4118676500000003 0.9937872400000001     C
C     0.41186764999999936 0.99378724 0.60055787     C
C     -0.006212760000000525 1.41186765 0.60055787     C
C     -0.0062127600000000715 0.9937872399999998 1.4118676500000003     C
C     0.4118676499999999 0.99378724 0.9937872400000001     C
C     -0.39944212999999973 1.4118676500000003 0.9937872400000001     C
C     -0.39944213000000023 0.99378724 0.9937872400000001     C
C     -0.006212759999999998 0.99378724 0.60055787     C
C     -0.006212760000000127 0.6005578699999998 1.4118676500000003     C
C     0.4118676499999998 0.60055787 0.9937872400000001     C
C     -0.0981910292253881 0.6034986320839747 0.9852838450574386     C
C     0.5025785279160249 1.0038030292253874 0.4084884479160257     C
C     0.08512999494256081 0.40848844791602573 1.0038030292253872     C
C     0.5094085520839735 0.9852838450574386 0.6034986320839744     C
C     0.0038030292253862924 1.4084884479160253 0.5025785279160259     C
C     0.0038030292253866047 1.0851299949425617 0.4084884479160261     C
C     0.5094085520839743 0.9018089707746126 0.9852838450574389     C
C     0.5025785279160262 0.40848844791602557 1.0851299949425612     C
C     -0.49742147208397475 1.0851299949425612 1.0038030292253879     C
C     -0.014716154942561444 0.9018089707746126 0.6034986320839744     C
C     -0.014716154942561795 0.6034986320839748 1.5094085520839744     C
C     0.509408552083975 0.6034986320839737 0.9018089707746126     C
C     0.0038030292253868735 0.5025785279160259 1.4084884479160258     C
C     -0.39650136791602586 0.9018089707746126 0.9852838450574389     C
C     -0.014716154942562499 1.509408552083974 0.6034986320839744     C
C     0.40848844791602545 1.0851299949425612 1.0038030292253879     C
C     -0.09819102922538786 0.5094085520839743 0.9852838450574387     C
C     0.0038030292253867486 1.0851299949425615 0.5025785279160262     C
C     0.4084884479160248 1.0038030292253879 0.5025785279160253     C
C     0.6034986320839746 0.509408552083974 0.9018089707746126     C
C     0.6034986320839734 0.9852838450574389 0.5094085520839738     C
C     -0.014716154942562181 0.9018089707746135 0.5094085520839747     C
C     0.08512999494256082 0.5025785279160254 1.0038030292253874     C
C     0.408488447916026 0.5025785279160256 1.0851299949425612     C
C     0.30881657000000007 0.9959518499999999 0.6992797300000001     C
C     -0.004048150000000316 1.3088165699999998 0.99595185     C
C     -0.30072027000000007 0.9959518499999999 1.30881657     C
C     -0.004048150000000316 0.6992797299999999 0.99595185     C
C     0.3088165700000002 0.9959518499999999 0.99595185     C
C     0.30881657000000007 0.6992797299999999 0.99595185     C
C     -0.004048150000000554 1.3088165699999998 0.6992797300000001     C
C     -0.00404815000000011 0.9959518499999999 0.6992797300000001     C
C     -0.00404815000000011 0.6992797299999999 1.30881657     C
C     -0.3007202700000002 1.3088165699999998 0.99595185     C
C     -0.3007202700000001 0.9959518499999999 0.99595185     C
C     -0.00404815000000011 0.9959518499999999 1.30881657     C
O     0.06730802999999999 0.06730802999999999 0.79807592     O
O     0.06730802999999999 0.06730802999999999 0.06730803     O
O     0.79807592 0.06730802999999999 0.06730803     O
O     0.06730802999999999 0.79807592 0.06730803     O
O     0.07472636999999994 0.7379187399999999 0.92010767     O
O     -0.26208126000000015 1.07472637 1.26724722     O
O     -0.07989232999999991 1.2672472199999998 1.07472637     O
O     0.26724722 0.92010767 0.73791874     O
O     0.07472637000000004 1.2672472199999998 0.73791874     O
O     0.07472637000000014 0.9201076699999998 1.26724722     O
O     0.2672472200000002 1.0747263699999998 0.92010767     O
O     -0.2620812599999995 1.2672472199999998 0.92010767     O
O     -0.26208126000000015 0.9201076699999998 1.07472637     O
O     -0.07989233000000054 1.07472637 0.73791874     O
O     -0.07989233000000019 0.7379187399999999 1.26724722     O
O     0.2672472200000001 0.7379187399999999 1.07472637     O
O     0.07472637000000003 0.7379187399999999 1.26724722     O
O     -0.2620812599999995 1.0747263699999998 0.92010767     O
O     -0.07989232999999984 1.2672472199999998 0.73791874     O
O     0.26724722 0.9201076699999998 1.07472637     O
O     0.07472637000000006 1.2672472199999998 0.92010767     O
O     0.07472636999999999 0.92010767 0.73791874     O
O     0.26724722 1.07472637 0.73791874     O
O     -0.26208126000000004 1.2672472199999998 1.07472637     O
O     -0.26208125999999965 0.9201076699999998 1.26724722     O
O     -0.07989232999999997 1.07472637 1.26724722     O
O     -0.07989233000000036 0.7379187399999999 1.07472637     O
O     0.26724721999999995 0.7379187399999999 0.92010767     O
O     0.9495820799999999 0.94958208 0.15125376     O
O     0.9495820800000001 0.9495820799999999 0.94958208     O
O     0.15125375999999985 0.9495820799999999 0.94958208     O
O     0.9495820799999999 0.15125375999999996 0.94958208     O
C     -0.19345091417417382 0.7039913564116469 0.9764770646002242     C
N     -0.27084957069506227 0.7856416949278807 0.9693215554787373     N
C     0.49855050410371304 1.0141761634158533 0.3075416408543693     C
N     0.4952777347562094 1.0226043349456062 0.2255223601167745     N
C     0.014176163415851383 1.30754164085437 0.49855050410371365     C
N     0.02260433494560392 1.225522360116775 0.4952777347562108     N
C     0.014176163415851668 1.179731691626064 0.3075416408543708     C
N     0.022604334945604262 1.2565955701814102 0.22552236011677584     N
C     0.5129824931623023 0.8065490858258263 0.9764770646002251     C
N     0.515886320288444 0.7291504293049373 0.969321555478739     N
C     0.49855050410371404 0.3075416408543702 1.1797316916260636     C
N     0.49527773475621073 0.2255223601167753 1.2565955701814093     N
